file 62091842 1540882944                                        
version 2
run General-0-20181030-02:57:55-51511
attr configname General
attr datetime 20181030-02:57:55
attr experiment General
attr inifile omnetpp.ini
attr iterationvars ""
attr iterationvarsf ""
attr measurement ""
attr network WiredNetworkExample
attr processid 51511
attr repetition 0
attr replication #0
attr resultdir results
attr runnumber 0
attr seedset 0
param *.numClients 10
param *.client[*].numApps 1
param *.client[*].app[0].typename "\"TcpSessionApp\""
param *.client[*].app[0].connectAddress "\"server\""
param *.client[*].app[0].connectPort 1000
param *.client[*].app[0].sendBytes 1MB
param *.server.numApps 1
param *.server.app[0].typename "\"TcpEchoApp\""
param *.server.app[0].localPort 1000

vector 0 WiredNetworkExample.server.ppp[0].queue queueLength:vector ETV
attr interpolationmode sample-hold
attr title "queue length, vector"
vector 1 WiredNetworkExample.server.ppp[0].ppp transmissionState:vector ETV
attr interpolationmode sample-hold
attr source transmissionStateChanged
attr title "tx state, vector"
vector 2 WiredNetworkExample.router.ppp[0].queue queueLength:vector ETV
attr interpolationmode sample-hold
attr title "queue length, vector"
vector 3 WiredNetworkExample.router.ppp[0].ppp transmissionState:vector ETV
attr interpolationmode sample-hold
attr source transmissionStateChanged
attr title "tx state, vector"
vector 4 WiredNetworkExample.client[0].tcp tcpRcvQueueBytes ETV
vector 5 WiredNetworkExample.client[0].tcp "advertised window" ETV
vector 6 WiredNetworkExample.client[0].tcp "receive window" ETV
vector 7 WiredNetworkExample.client[0].tcp "sent ack" ETV
vector 8 WiredNetworkExample.client[1].tcp tcpRcvQueueBytes ETV
vector 9 WiredNetworkExample.client[1].tcp "advertised window" ETV
vector 10 WiredNetworkExample.client[1].tcp "receive window" ETV
vector 11 WiredNetworkExample.client[1].tcp "sent ack" ETV
vector 12 WiredNetworkExample.client[2].tcp tcpRcvQueueBytes ETV
vector 13 WiredNetworkExample.client[2].tcp "advertised window" ETV
vector 14 WiredNetworkExample.client[2].tcp "receive window" ETV
vector 15 WiredNetworkExample.client[2].tcp "sent ack" ETV
vector 16 WiredNetworkExample.client[3].tcp tcpRcvQueueBytes ETV
vector 17 WiredNetworkExample.client[3].tcp "advertised window" ETV
vector 18 WiredNetworkExample.client[3].tcp "receive window" ETV
vector 19 WiredNetworkExample.client[3].tcp "sent ack" ETV
vector 20 WiredNetworkExample.client[4].tcp tcpRcvQueueBytes ETV
vector 21 WiredNetworkExample.client[4].tcp "advertised window" ETV
vector 22 WiredNetworkExample.client[4].tcp "receive window" ETV
vector 23 WiredNetworkExample.client[4].tcp "sent ack" ETV
vector 24 WiredNetworkExample.client[5].tcp tcpRcvQueueBytes ETV
vector 25 WiredNetworkExample.client[5].tcp "advertised window" ETV
vector 26 WiredNetworkExample.client[5].tcp "receive window" ETV
vector 27 WiredNetworkExample.client[5].tcp "sent ack" ETV
vector 28 WiredNetworkExample.client[6].tcp tcpRcvQueueBytes ETV
vector 29 WiredNetworkExample.client[6].tcp "advertised window" ETV
vector 30 WiredNetworkExample.client[6].tcp "receive window" ETV
vector 31 WiredNetworkExample.client[6].tcp "sent ack" ETV
vector 32 WiredNetworkExample.client[7].tcp tcpRcvQueueBytes ETV
vector 33 WiredNetworkExample.client[7].tcp "advertised window" ETV
vector 34 WiredNetworkExample.client[7].tcp "receive window" ETV
vector 35 WiredNetworkExample.client[7].tcp "sent ack" ETV
vector 36 WiredNetworkExample.client[8].tcp tcpRcvQueueBytes ETV
vector 37 WiredNetworkExample.client[8].tcp "advertised window" ETV
vector 38 WiredNetworkExample.client[8].tcp "receive window" ETV
vector 39 WiredNetworkExample.client[8].tcp "sent ack" ETV
vector 40 WiredNetworkExample.client[9].tcp tcpRcvQueueBytes ETV
vector 41 WiredNetworkExample.client[9].tcp "advertised window" ETV
vector 42 WiredNetworkExample.client[9].tcp "receive window" ETV
vector 43 WiredNetworkExample.client[9].tcp "sent ack" ETV
vector 44 WiredNetworkExample.client[0].ipv4.arp arpRequestSent:vector(packetBytes) ETV
attr source arpRequestSent
attr title "ARP request sent, vector(packetBytes)"
vector 45 WiredNetworkExample.client[1].ipv4.arp arpRequestSent:vector(packetBytes) ETV
attr source arpRequestSent
attr title "ARP request sent, vector(packetBytes)"
vector 46 WiredNetworkExample.client[2].ipv4.arp arpRequestSent:vector(packetBytes) ETV
attr source arpRequestSent
attr title "ARP request sent, vector(packetBytes)"
vector 47 WiredNetworkExample.client[3].ipv4.arp arpRequestSent:vector(packetBytes) ETV
attr source arpRequestSent
attr title "ARP request sent, vector(packetBytes)"
vector 48 WiredNetworkExample.client[4].ipv4.arp arpRequestSent:vector(packetBytes) ETV
attr source arpRequestSent
attr title "ARP request sent, vector(packetBytes)"
vector 49 WiredNetworkExample.client[5].ipv4.arp arpRequestSent:vector(packetBytes) ETV
attr source arpRequestSent
attr title "ARP request sent, vector(packetBytes)"
vector 50 WiredNetworkExample.client[6].ipv4.arp arpRequestSent:vector(packetBytes) ETV
attr source arpRequestSent
attr title "ARP request sent, vector(packetBytes)"
vector 51 WiredNetworkExample.client[7].ipv4.arp arpRequestSent:vector(packetBytes) ETV
attr source arpRequestSent
attr title "ARP request sent, vector(packetBytes)"
vector 52 WiredNetworkExample.client[8].ipv4.arp arpRequestSent:vector(packetBytes) ETV
attr source arpRequestSent
attr title "ARP request sent, vector(packetBytes)"
vector 53 WiredNetworkExample.client[9].ipv4.arp arpRequestSent:vector(packetBytes) ETV
attr source arpRequestSent
attr title "ARP request sent, vector(packetBytes)"
vector 54 WiredNetworkExample.client[0].eth[0].encap encapPk:vector(packetBytes) ETV
attr interpolationmode none
attr source encapPk
attr title "packets encapsulated, vector(packetBytes)"
vector 55 WiredNetworkExample.client[1].eth[0].encap encapPk:vector(packetBytes) ETV
attr interpolationmode none
attr source encapPk
attr title "packets encapsulated, vector(packetBytes)"
vector 56 WiredNetworkExample.client[2].eth[0].encap encapPk:vector(packetBytes) ETV
attr interpolationmode none
attr source encapPk
attr title "packets encapsulated, vector(packetBytes)"
vector 57 WiredNetworkExample.client[3].eth[0].encap encapPk:vector(packetBytes) ETV
attr interpolationmode none
attr source encapPk
attr title "packets encapsulated, vector(packetBytes)"
vector 58 WiredNetworkExample.client[4].eth[0].encap encapPk:vector(packetBytes) ETV
attr interpolationmode none
attr source encapPk
attr title "packets encapsulated, vector(packetBytes)"
vector 59 WiredNetworkExample.client[5].eth[0].encap encapPk:vector(packetBytes) ETV
attr interpolationmode none
attr source encapPk
attr title "packets encapsulated, vector(packetBytes)"
vector 60 WiredNetworkExample.client[6].eth[0].encap encapPk:vector(packetBytes) ETV
attr interpolationmode none
attr source encapPk
attr title "packets encapsulated, vector(packetBytes)"
vector 61 WiredNetworkExample.client[7].eth[0].encap encapPk:vector(packetBytes) ETV
attr interpolationmode none
attr source encapPk
attr title "packets encapsulated, vector(packetBytes)"
vector 62 WiredNetworkExample.client[8].eth[0].encap encapPk:vector(packetBytes) ETV
attr interpolationmode none
attr source encapPk
attr title "packets encapsulated, vector(packetBytes)"
vector 63 WiredNetworkExample.client[9].eth[0].encap encapPk:vector(packetBytes) ETV
attr interpolationmode none
attr source encapPk
attr title "packets encapsulated, vector(packetBytes)"
vector 64 WiredNetworkExample.client[0].eth[0].mac packetReceivedFromUpper:vector(packetBytes) ETV
attr interpolationmode none
attr source packetReceivedFromUpper
attr title "packet bytes from higher layer, vector(packetBytes)"
vector 65 WiredNetworkExample.client[1].eth[0].mac packetReceivedFromUpper:vector(packetBytes) ETV
attr interpolationmode none
attr source packetReceivedFromUpper
attr title "packet bytes from higher layer, vector(packetBytes)"
vector 66 WiredNetworkExample.client[2].eth[0].mac packetReceivedFromUpper:vector(packetBytes) ETV
attr interpolationmode none
attr source packetReceivedFromUpper
attr title "packet bytes from higher layer, vector(packetBytes)"
vector 67 WiredNetworkExample.client[3].eth[0].mac packetReceivedFromUpper:vector(packetBytes) ETV
attr interpolationmode none
attr source packetReceivedFromUpper
attr title "packet bytes from higher layer, vector(packetBytes)"
vector 68 WiredNetworkExample.client[4].eth[0].mac packetReceivedFromUpper:vector(packetBytes) ETV
attr interpolationmode none
attr source packetReceivedFromUpper
attr title "packet bytes from higher layer, vector(packetBytes)"
vector 69 WiredNetworkExample.client[5].eth[0].mac packetReceivedFromUpper:vector(packetBytes) ETV
attr interpolationmode none
attr source packetReceivedFromUpper
attr title "packet bytes from higher layer, vector(packetBytes)"
vector 70 WiredNetworkExample.client[6].eth[0].mac packetReceivedFromUpper:vector(packetBytes) ETV
attr interpolationmode none
attr source packetReceivedFromUpper
attr title "packet bytes from higher layer, vector(packetBytes)"
vector 71 WiredNetworkExample.client[7].eth[0].mac packetReceivedFromUpper:vector(packetBytes) ETV
attr interpolationmode none
attr source packetReceivedFromUpper
attr title "packet bytes from higher layer, vector(packetBytes)"
vector 72 WiredNetworkExample.client[8].eth[0].mac packetReceivedFromUpper:vector(packetBytes) ETV
attr interpolationmode none
attr source packetReceivedFromUpper
attr title "packet bytes from higher layer, vector(packetBytes)"
vector 73 WiredNetworkExample.client[9].eth[0].mac packetReceivedFromUpper:vector(packetBytes) ETV
attr interpolationmode none
attr source packetReceivedFromUpper
attr title "packet bytes from higher layer, vector(packetBytes)"
vector 74 WiredNetworkExample.client[0].eth[0].mac txPk:vector(packetBytes) ETV
attr interpolationmode none
attr source packetSentToLower
attr title "packets transmitted, vector(packetBytes)"
vector 75 WiredNetworkExample.client[1].eth[0].mac txPk:vector(packetBytes) ETV
attr interpolationmode none
attr source packetSentToLower
attr title "packets transmitted, vector(packetBytes)"
vector 76 WiredNetworkExample.client[2].eth[0].mac txPk:vector(packetBytes) ETV
attr interpolationmode none
attr source packetSentToLower
attr title "packets transmitted, vector(packetBytes)"
vector 77 WiredNetworkExample.client[3].eth[0].mac txPk:vector(packetBytes) ETV
attr interpolationmode none
attr source packetSentToLower
attr title "packets transmitted, vector(packetBytes)"
vector 78 WiredNetworkExample.client[4].eth[0].mac txPk:vector(packetBytes) ETV
attr interpolationmode none
attr source packetSentToLower
attr title "packets transmitted, vector(packetBytes)"
vector 79 WiredNetworkExample.client[5].eth[0].mac txPk:vector(packetBytes) ETV
attr interpolationmode none
attr source packetSentToLower
attr title "packets transmitted, vector(packetBytes)"
vector 80 WiredNetworkExample.client[6].eth[0].mac txPk:vector(packetBytes) ETV
attr interpolationmode none
attr source packetSentToLower
attr title "packets transmitted, vector(packetBytes)"
vector 81 WiredNetworkExample.client[7].eth[0].mac txPk:vector(packetBytes) ETV
attr interpolationmode none
attr source packetSentToLower
attr title "packets transmitted, vector(packetBytes)"
vector 82 WiredNetworkExample.client[8].eth[0].mac txPk:vector(packetBytes) ETV
attr interpolationmode none
attr source packetSentToLower
attr title "packets transmitted, vector(packetBytes)"
vector 83 WiredNetworkExample.client[9].eth[0].mac txPk:vector(packetBytes) ETV
attr interpolationmode none
attr source packetSentToLower
attr title "packets transmitted, vector(packetBytes)"
vector 84 WiredNetworkExample.switch.eth[1].mac rxPkOk:vector(packetBytes) ETV
attr interpolationmode none
attr source rxPkOk
attr title "packets received OK, vector(packetBytes)"
vector 85 WiredNetworkExample.switch.eth[1].mac passedUpPk:vector(packetBytes) ETV
attr interpolationmode none
attr source packetSentToUpper
attr title "packets passed to higher layer, vector(packetBytes)"
vector 86 WiredNetworkExample.switch.eth[2].mac rxPkOk:vector(packetBytes) ETV
attr interpolationmode none
attr source rxPkOk
attr title "packets received OK, vector(packetBytes)"
vector 87 WiredNetworkExample.switch.eth[2].mac passedUpPk:vector(packetBytes) ETV
attr interpolationmode none
attr source packetSentToUpper
attr title "packets passed to higher layer, vector(packetBytes)"
vector 88 WiredNetworkExample.switch.eth[3].mac rxPkOk:vector(packetBytes) ETV
attr interpolationmode none
attr source rxPkOk
attr title "packets received OK, vector(packetBytes)"
vector 89 WiredNetworkExample.switch.eth[3].mac passedUpPk:vector(packetBytes) ETV
attr interpolationmode none
attr source packetSentToUpper
attr title "packets passed to higher layer, vector(packetBytes)"
vector 90 WiredNetworkExample.switch.eth[4].mac rxPkOk:vector(packetBytes) ETV
attr interpolationmode none
attr source rxPkOk
attr title "packets received OK, vector(packetBytes)"
vector 91 WiredNetworkExample.switch.eth[4].mac passedUpPk:vector(packetBytes) ETV
attr interpolationmode none
attr source packetSentToUpper
attr title "packets passed to higher layer, vector(packetBytes)"
vector 92 WiredNetworkExample.switch.eth[5].mac rxPkOk:vector(packetBytes) ETV
attr interpolationmode none
attr source rxPkOk
attr title "packets received OK, vector(packetBytes)"
vector 93 WiredNetworkExample.switch.eth[5].mac passedUpPk:vector(packetBytes) ETV
attr interpolationmode none
attr source packetSentToUpper
attr title "packets passed to higher layer, vector(packetBytes)"
vector 94 WiredNetworkExample.switch.eth[6].mac rxPkOk:vector(packetBytes) ETV
attr interpolationmode none
attr source rxPkOk
attr title "packets received OK, vector(packetBytes)"
vector 95 WiredNetworkExample.switch.eth[6].mac passedUpPk:vector(packetBytes) ETV
attr interpolationmode none
attr source packetSentToUpper
attr title "packets passed to higher layer, vector(packetBytes)"
vector 96 WiredNetworkExample.switch.eth[7].mac rxPkOk:vector(packetBytes) ETV
attr interpolationmode none
attr source rxPkOk
attr title "packets received OK, vector(packetBytes)"
vector 97 WiredNetworkExample.switch.eth[7].mac passedUpPk:vector(packetBytes) ETV
attr interpolationmode none
attr source packetSentToUpper
attr title "packets passed to higher layer, vector(packetBytes)"
vector 98 WiredNetworkExample.switch.eth[8].mac rxPkOk:vector(packetBytes) ETV
attr interpolationmode none
attr source rxPkOk
attr title "packets received OK, vector(packetBytes)"
vector 99 WiredNetworkExample.switch.eth[8].mac passedUpPk:vector(packetBytes) ETV
attr interpolationmode none
attr source packetSentToUpper
attr title "packets passed to higher layer, vector(packetBytes)"
vector 100 WiredNetworkExample.switch.eth[9].mac rxPkOk:vector(packetBytes) ETV
attr interpolationmode none
attr source rxPkOk
attr title "packets received OK, vector(packetBytes)"
vector 101 WiredNetworkExample.switch.eth[9].mac passedUpPk:vector(packetBytes) ETV
attr interpolationmode none
attr source packetSentToUpper
attr title "packets passed to higher layer, vector(packetBytes)"
vector 102 WiredNetworkExample.switch.eth[10].mac rxPkOk:vector(packetBytes) ETV
attr interpolationmode none
attr source rxPkOk
attr title "packets received OK, vector(packetBytes)"
vector 103 WiredNetworkExample.switch.eth[10].mac passedUpPk:vector(packetBytes) ETV
attr interpolationmode none
attr source packetSentToUpper
attr title "packets passed to higher layer, vector(packetBytes)"
vector 104 WiredNetworkExample.switch.eth[0].mac packetReceivedFromUpper:vector(packetBytes) ETV
attr interpolationmode none
attr source packetReceivedFromUpper
attr title "packet bytes from higher layer, vector(packetBytes)"
vector 105 WiredNetworkExample.switch.eth[2].mac packetReceivedFromUpper:vector(packetBytes) ETV
attr interpolationmode none
attr source packetReceivedFromUpper
attr title "packet bytes from higher layer, vector(packetBytes)"
vector 106 WiredNetworkExample.switch.eth[3].mac packetReceivedFromUpper:vector(packetBytes) ETV
attr interpolationmode none
attr source packetReceivedFromUpper
attr title "packet bytes from higher layer, vector(packetBytes)"
vector 107 WiredNetworkExample.switch.eth[4].mac packetReceivedFromUpper:vector(packetBytes) ETV
attr interpolationmode none
attr source packetReceivedFromUpper
attr title "packet bytes from higher layer, vector(packetBytes)"
vector 108 WiredNetworkExample.switch.eth[5].mac packetReceivedFromUpper:vector(packetBytes) ETV
attr interpolationmode none
attr source packetReceivedFromUpper
attr title "packet bytes from higher layer, vector(packetBytes)"
vector 109 WiredNetworkExample.switch.eth[6].mac packetReceivedFromUpper:vector(packetBytes) ETV
attr interpolationmode none
attr source packetReceivedFromUpper
attr title "packet bytes from higher layer, vector(packetBytes)"
vector 110 WiredNetworkExample.switch.eth[7].mac packetReceivedFromUpper:vector(packetBytes) ETV
attr interpolationmode none
attr source packetReceivedFromUpper
attr title "packet bytes from higher layer, vector(packetBytes)"
vector 111 WiredNetworkExample.switch.eth[8].mac packetReceivedFromUpper:vector(packetBytes) ETV
attr interpolationmode none
attr source packetReceivedFromUpper
attr title "packet bytes from higher layer, vector(packetBytes)"
vector 112 WiredNetworkExample.switch.eth[9].mac packetReceivedFromUpper:vector(packetBytes) ETV
attr interpolationmode none
attr source packetReceivedFromUpper
attr title "packet bytes from higher layer, vector(packetBytes)"
vector 113 WiredNetworkExample.switch.eth[10].mac packetReceivedFromUpper:vector(packetBytes) ETV
attr interpolationmode none
attr source packetReceivedFromUpper
attr title "packet bytes from higher layer, vector(packetBytes)"
vector 114 WiredNetworkExample.switch.eth[1].mac packetReceivedFromUpper:vector(packetBytes) ETV
attr interpolationmode none
attr source packetReceivedFromUpper
attr title "packet bytes from higher layer, vector(packetBytes)"
vector 115 WiredNetworkExample.switch.eth[0].mac txPk:vector(packetBytes) ETV
attr interpolationmode none
attr source packetSentToLower
attr title "packets transmitted, vector(packetBytes)"
vector 116 WiredNetworkExample.router.eth[0].mac rxPkOk:vector(packetBytes) ETV
attr interpolationmode none
attr source rxPkOk
attr title "packets received OK, vector(packetBytes)"
vector 117 WiredNetworkExample.router.eth[0].mac passedUpPk:vector(packetBytes) ETV
attr interpolationmode none
attr source packetSentToUpper
attr title "packets passed to higher layer, vector(packetBytes)"
vector 118 WiredNetworkExample.router.eth[0].encap decapPk:vector(packetBytes) ETV
attr interpolationmode none
attr source decapPk
attr title "packets decapsulated, vector(packetBytes)"
vector 119 WiredNetworkExample.router.ipv4.arp arpReplySent:vector(packetBytes) ETV
attr source arpReplySent
attr title "ARP replies sent, vector(packetBytes)"
vector 120 WiredNetworkExample.router.eth[0].encap encapPk:vector(packetBytes) ETV
attr interpolationmode none
attr source encapPk
attr title "packets encapsulated, vector(packetBytes)"
vector 121 WiredNetworkExample.router.eth[0].mac packetReceivedFromUpper:vector(packetBytes) ETV
attr interpolationmode none
attr source packetReceivedFromUpper
attr title "packet bytes from higher layer, vector(packetBytes)"
vector 122 WiredNetworkExample.switch.eth[1].mac txPk:vector(packetBytes) ETV
attr interpolationmode none
attr source packetSentToLower
attr title "packets transmitted, vector(packetBytes)"
vector 123 WiredNetworkExample.switch.eth[2].mac txPk:vector(packetBytes) ETV
attr interpolationmode none
attr source packetSentToLower
attr title "packets transmitted, vector(packetBytes)"
vector 124 WiredNetworkExample.switch.eth[3].mac txPk:vector(packetBytes) ETV
attr interpolationmode none
attr source packetSentToLower
attr title "packets transmitted, vector(packetBytes)"
vector 125 WiredNetworkExample.switch.eth[4].mac txPk:vector(packetBytes) ETV
attr interpolationmode none
attr source packetSentToLower
attr title "packets transmitted, vector(packetBytes)"
vector 126 WiredNetworkExample.switch.eth[5].mac txPk:vector(packetBytes) ETV
attr interpolationmode none
attr source packetSentToLower
attr title "packets transmitted, vector(packetBytes)"
vector 127 WiredNetworkExample.switch.eth[6].mac txPk:vector(packetBytes) ETV
attr interpolationmode none
attr source packetSentToLower
attr title "packets transmitted, vector(packetBytes)"
vector 128 WiredNetworkExample.switch.eth[7].mac txPk:vector(packetBytes) ETV
attr interpolationmode none
attr source packetSentToLower
attr title "packets transmitted, vector(packetBytes)"
vector 129 WiredNetworkExample.switch.eth[8].mac txPk:vector(packetBytes) ETV
attr interpolationmode none
attr source packetSentToLower
attr title "packets transmitted, vector(packetBytes)"
vector 130 WiredNetworkExample.switch.eth[9].mac txPk:vector(packetBytes) ETV
attr interpolationmode none
attr source packetSentToLower
attr title "packets transmitted, vector(packetBytes)"
vector 131 WiredNetworkExample.switch.eth[10].mac txPk:vector(packetBytes) ETV
attr interpolationmode none
attr source packetSentToLower
attr title "packets transmitted, vector(packetBytes)"
vector 132 WiredNetworkExample.client[0].eth[0].mac rxPkOk:vector(packetBytes) ETV
attr interpolationmode none
attr source rxPkOk
attr title "packets received OK, vector(packetBytes)"
vector 133 WiredNetworkExample.client[0].eth[0].mac passedUpPk:vector(packetBytes) ETV
attr interpolationmode none
attr source packetSentToUpper
attr title "packets passed to higher layer, vector(packetBytes)"
vector 134 WiredNetworkExample.client[1].eth[0].mac rxPkOk:vector(packetBytes) ETV
attr interpolationmode none
attr source rxPkOk
attr title "packets received OK, vector(packetBytes)"
vector 135 WiredNetworkExample.client[1].eth[0].mac passedUpPk:vector(packetBytes) ETV
attr interpolationmode none
attr source packetSentToUpper
attr title "packets passed to higher layer, vector(packetBytes)"
vector 136 WiredNetworkExample.client[2].eth[0].mac rxPkOk:vector(packetBytes) ETV
attr interpolationmode none
attr source rxPkOk
attr title "packets received OK, vector(packetBytes)"
vector 137 WiredNetworkExample.client[2].eth[0].mac passedUpPk:vector(packetBytes) ETV
attr interpolationmode none
attr source packetSentToUpper
attr title "packets passed to higher layer, vector(packetBytes)"
vector 138 WiredNetworkExample.client[3].eth[0].mac rxPkOk:vector(packetBytes) ETV
attr interpolationmode none
attr source rxPkOk
attr title "packets received OK, vector(packetBytes)"
vector 139 WiredNetworkExample.client[3].eth[0].mac passedUpPk:vector(packetBytes) ETV
attr interpolationmode none
attr source packetSentToUpper
attr title "packets passed to higher layer, vector(packetBytes)"
vector 140 WiredNetworkExample.client[4].eth[0].mac rxPkOk:vector(packetBytes) ETV
attr interpolationmode none
attr source rxPkOk
attr title "packets received OK, vector(packetBytes)"
vector 141 WiredNetworkExample.client[4].eth[0].mac passedUpPk:vector(packetBytes) ETV
attr interpolationmode none
attr source packetSentToUpper
attr title "packets passed to higher layer, vector(packetBytes)"
vector 142 WiredNetworkExample.client[5].eth[0].mac rxPkOk:vector(packetBytes) ETV
attr interpolationmode none
attr source rxPkOk
attr title "packets received OK, vector(packetBytes)"
vector 143 WiredNetworkExample.client[5].eth[0].mac passedUpPk:vector(packetBytes) ETV
attr interpolationmode none
attr source packetSentToUpper
attr title "packets passed to higher layer, vector(packetBytes)"
vector 144 WiredNetworkExample.client[6].eth[0].mac rxPkOk:vector(packetBytes) ETV
attr interpolationmode none
attr source rxPkOk
attr title "packets received OK, vector(packetBytes)"
vector 145 WiredNetworkExample.client[6].eth[0].mac passedUpPk:vector(packetBytes) ETV
attr interpolationmode none
attr source packetSentToUpper
attr title "packets passed to higher layer, vector(packetBytes)"
vector 146 WiredNetworkExample.client[7].eth[0].mac rxPkOk:vector(packetBytes) ETV
attr interpolationmode none
attr source rxPkOk
attr title "packets received OK, vector(packetBytes)"
vector 147 WiredNetworkExample.client[7].eth[0].mac passedUpPk:vector(packetBytes) ETV
attr interpolationmode none
attr source packetSentToUpper
attr title "packets passed to higher layer, vector(packetBytes)"
vector 148 WiredNetworkExample.client[8].eth[0].mac rxPkOk:vector(packetBytes) ETV
attr interpolationmode none
attr source rxPkOk
attr title "packets received OK, vector(packetBytes)"
vector 149 WiredNetworkExample.client[8].eth[0].mac passedUpPk:vector(packetBytes) ETV
attr interpolationmode none
attr source packetSentToUpper
attr title "packets passed to higher layer, vector(packetBytes)"
vector 150 WiredNetworkExample.client[9].eth[0].mac rxPkOk:vector(packetBytes) ETV
attr interpolationmode none
attr source rxPkOk
attr title "packets received OK, vector(packetBytes)"
vector 151 WiredNetworkExample.client[9].eth[0].mac passedUpPk:vector(packetBytes) ETV
attr interpolationmode none
attr source packetSentToUpper
attr title "packets passed to higher layer, vector(packetBytes)"
vector 152 WiredNetworkExample.client[0].eth[0].encap decapPk:vector(packetBytes) ETV
attr interpolationmode none
attr source decapPk
attr title "packets decapsulated, vector(packetBytes)"
vector 153 WiredNetworkExample.client[1].eth[0].encap decapPk:vector(packetBytes) ETV
attr interpolationmode none
attr source decapPk
attr title "packets decapsulated, vector(packetBytes)"
vector 154 WiredNetworkExample.client[2].eth[0].encap decapPk:vector(packetBytes) ETV
attr interpolationmode none
attr source decapPk
attr title "packets decapsulated, vector(packetBytes)"
vector 155 WiredNetworkExample.client[3].eth[0].encap decapPk:vector(packetBytes) ETV
attr interpolationmode none
attr source decapPk
attr title "packets decapsulated, vector(packetBytes)"
vector 156 WiredNetworkExample.client[4].eth[0].encap decapPk:vector(packetBytes) ETV
attr interpolationmode none
attr source decapPk
attr title "packets decapsulated, vector(packetBytes)"
vector 157 WiredNetworkExample.client[5].eth[0].encap decapPk:vector(packetBytes) ETV
attr interpolationmode none
attr source decapPk
attr title "packets decapsulated, vector(packetBytes)"
vector 158 WiredNetworkExample.client[6].eth[0].encap decapPk:vector(packetBytes) ETV
attr interpolationmode none
attr source decapPk
attr title "packets decapsulated, vector(packetBytes)"
vector 159 WiredNetworkExample.client[7].eth[0].encap decapPk:vector(packetBytes) ETV
attr interpolationmode none
attr source decapPk
attr title "packets decapsulated, vector(packetBytes)"
vector 160 WiredNetworkExample.client[8].eth[0].encap decapPk:vector(packetBytes) ETV
attr interpolationmode none
attr source decapPk
attr title "packets decapsulated, vector(packetBytes)"
vector 161 WiredNetworkExample.client[9].eth[0].encap decapPk:vector(packetBytes) ETV
attr interpolationmode none
attr source decapPk
attr title "packets decapsulated, vector(packetBytes)"
vector 162 WiredNetworkExample.router.eth[0].mac txPk:vector(packetBytes) ETV
attr interpolationmode none
attr source packetSentToLower
attr title "packets transmitted, vector(packetBytes)"
vector 163 WiredNetworkExample.switch.eth[0].mac rxPkOk:vector(packetBytes) ETV
attr interpolationmode none
attr source rxPkOk
attr title "packets received OK, vector(packetBytes)"
vector 164 WiredNetworkExample.switch.eth[0].mac passedUpPk:vector(packetBytes) ETV
attr interpolationmode none
attr source packetSentToUpper
attr title "packets passed to higher layer, vector(packetBytes)"
vector 165 WiredNetworkExample.router.ppp[0].queue packetReceived:vector(packetBytes) ETV
attr interpolationmode none
attr title "received packets, vector(packetBytes)"
vector 166 WiredNetworkExample.router.ppp[0].queue queueingTime:vector ETV
attr interpolationmode none
attr title "queueing time, vector"
vector 167 WiredNetworkExample.router.ppp[0].ppp rcvdPkFromHl:vector(packetBytes) ETV
attr interpolationmode none
attr source packetReceivedFromUpper
attr title "packets received from higher layer, vector(packetBytes)"
vector 168 WiredNetworkExample.router.ppp[0].ppp txPk:vector(packetBytes) ETV
attr interpolationmode none
attr source packetSentToLower
attr title "packets transmitted, vector(packetBytes)"
vector 169 WiredNetworkExample.server.ppp[0].ppp rxPkOk:vector(packetBytes) ETV
attr interpolationmode none
attr source rxPkOk
attr title "packets received OK, vector(packetBytes)"
vector 170 WiredNetworkExample.server.ppp[0].ppp passedUpPk:vector(packetBytes) ETV
attr interpolationmode none
attr source packetSentToUpper
attr title "packets passed to higher layer, vector(packetBytes)"
vector 171 WiredNetworkExample.server.tcp "rcvd seq" ETV
vector 172 WiredNetworkExample.server.tcp "rcvd ack" ETV
vector 173 WiredNetworkExample.server.tcp "advertised window" ETV
vector 174 WiredNetworkExample.server.tcp "send window" ETV
vector 175 WiredNetworkExample.server.tcp tcpRcvQueueBytes ETV
vector 176 WiredNetworkExample.server.tcp "receive window" ETV
vector 177 WiredNetworkExample.server.tcp "sent ack" ETV
vector 178 WiredNetworkExample.server.ppp[0].queue packetReceived:vector(packetBytes) ETV
attr interpolationmode none
attr title "received packets, vector(packetBytes)"
vector 179 WiredNetworkExample.server.ppp[0].queue queueingTime:vector ETV
attr interpolationmode none
attr title "queueing time, vector"
vector 180 WiredNetworkExample.server.ppp[0].ppp rcvdPkFromHl:vector(packetBytes) ETV
attr interpolationmode none
attr source packetReceivedFromUpper
attr title "packets received from higher layer, vector(packetBytes)"
vector 181 WiredNetworkExample.server.ppp[0].ppp txPk:vector(packetBytes) ETV
attr interpolationmode none
attr source packetSentToLower
attr title "packets transmitted, vector(packetBytes)"
vector 182 WiredNetworkExample.router.ppp[0].ppp rxPkOk:vector(packetBytes) ETV
attr interpolationmode none
attr source rxPkOk
attr title "packets received OK, vector(packetBytes)"
vector 183 WiredNetworkExample.router.ppp[0].ppp passedUpPk:vector(packetBytes) ETV
attr interpolationmode none
attr source packetSentToUpper
attr title "packets passed to higher layer, vector(packetBytes)"
vector 184 WiredNetworkExample.server.tcp "rcvd seq" ETV
vector 185 WiredNetworkExample.server.tcp "rcvd ack" ETV
vector 186 WiredNetworkExample.server.tcp "advertised window" ETV
vector 187 WiredNetworkExample.server.tcp "send window" ETV
vector 188 WiredNetworkExample.server.tcp tcpRcvQueueBytes ETV
vector 189 WiredNetworkExample.server.tcp "receive window" ETV
vector 190 WiredNetworkExample.server.tcp "sent ack" ETV
vector 191 WiredNetworkExample.server.tcp "rcvd seq" ETV
vector 192 WiredNetworkExample.server.tcp "rcvd ack" ETV
vector 193 WiredNetworkExample.server.tcp "advertised window" ETV
vector 194 WiredNetworkExample.server.tcp "send window" ETV
vector 195 WiredNetworkExample.server.tcp tcpRcvQueueBytes ETV
vector 196 WiredNetworkExample.server.tcp "receive window" ETV
vector 197 WiredNetworkExample.server.tcp "sent ack" ETV
vector 198 WiredNetworkExample.client[0].tcp "rcvd seq" ETV
vector 199 WiredNetworkExample.client[0].tcp "rcvd ack" ETV
vector 200 WiredNetworkExample.client[0].tcp "send window" ETV
vector 201 WiredNetworkExample.client[0].app[0] packetSent:vector(packetBytes) ETV
attr interpolationmode none
attr source packetSent
attr title "packets sent, vector(packetBytes)"
vector 202 WiredNetworkExample.client[0].tcp "sent seq" ETV
vector 203 WiredNetworkExample.client[0].tcp "unacked bytes" ETV
vector 204 WiredNetworkExample.server.tcp "rcvd seq" ETV
vector 205 WiredNetworkExample.server.tcp "rcvd ack" ETV
vector 206 WiredNetworkExample.server.tcp "advertised window" ETV
vector 207 WiredNetworkExample.server.tcp "send window" ETV
vector 208 WiredNetworkExample.server.tcp tcpRcvQueueBytes ETV
vector 209 WiredNetworkExample.server.tcp "receive window" ETV
vector 210 WiredNetworkExample.server.tcp "sent ack" ETV
vector 211 WiredNetworkExample.client[1].tcp "rcvd seq" ETV
vector 212 WiredNetworkExample.client[1].tcp "rcvd ack" ETV
vector 213 WiredNetworkExample.client[1].tcp "send window" ETV
vector 214 WiredNetworkExample.client[1].app[0] packetSent:vector(packetBytes) ETV
attr interpolationmode none
attr source packetSent
attr title "packets sent, vector(packetBytes)"
vector 215 WiredNetworkExample.client[1].tcp "sent seq" ETV
vector 216 WiredNetworkExample.client[1].tcp "unacked bytes" ETV
vector 217 WiredNetworkExample.server.tcp "rcvd seq" ETV
vector 218 WiredNetworkExample.server.tcp "rcvd ack" ETV
vector 219 WiredNetworkExample.server.tcp "advertised window" ETV
vector 220 WiredNetworkExample.server.tcp "send window" ETV
vector 221 WiredNetworkExample.server.tcp tcpRcvQueueBytes ETV
vector 222 WiredNetworkExample.server.tcp "receive window" ETV
vector 223 WiredNetworkExample.server.tcp "sent ack" ETV
vector 224 WiredNetworkExample.client[2].tcp "rcvd seq" ETV
vector 225 WiredNetworkExample.client[2].tcp "rcvd ack" ETV
vector 226 WiredNetworkExample.client[2].tcp "send window" ETV
vector 227 WiredNetworkExample.client[2].app[0] packetSent:vector(packetBytes) ETV
attr interpolationmode none
attr source packetSent
attr title "packets sent, vector(packetBytes)"
vector 228 WiredNetworkExample.client[2].tcp "sent seq" ETV
vector 229 WiredNetworkExample.client[2].tcp "unacked bytes" ETV
vector 230 WiredNetworkExample.server.tcp "rcvd seq" ETV
vector 231 WiredNetworkExample.server.tcp "rcvd ack" ETV
vector 232 WiredNetworkExample.server.tcp "advertised window" ETV
vector 233 WiredNetworkExample.server.tcp "send window" ETV
vector 234 WiredNetworkExample.server.tcp tcpRcvQueueBytes ETV
vector 235 WiredNetworkExample.server.tcp "receive window" ETV
vector 236 WiredNetworkExample.server.tcp "sent ack" ETV
vector 237 WiredNetworkExample.client[3].tcp "rcvd seq" ETV
vector 238 WiredNetworkExample.client[3].tcp "rcvd ack" ETV
vector 239 WiredNetworkExample.client[3].tcp "send window" ETV
vector 240 WiredNetworkExample.client[3].app[0] packetSent:vector(packetBytes) ETV
attr interpolationmode none
attr source packetSent
attr title "packets sent, vector(packetBytes)"
vector 241 WiredNetworkExample.client[3].tcp "sent seq" ETV
vector 242 WiredNetworkExample.client[3].tcp "unacked bytes" ETV
vector 243 WiredNetworkExample.server.tcp "rcvd seq" ETV
vector 244 WiredNetworkExample.server.tcp "rcvd ack" ETV
vector 245 WiredNetworkExample.server.tcp "advertised window" ETV
vector 246 WiredNetworkExample.server.tcp "send window" ETV
vector 247 WiredNetworkExample.server.tcp tcpRcvQueueBytes ETV
vector 248 WiredNetworkExample.server.tcp "receive window" ETV
vector 249 WiredNetworkExample.server.tcp "sent ack" ETV
vector 250 WiredNetworkExample.client[4].tcp "rcvd seq" ETV
vector 251 WiredNetworkExample.client[4].tcp "rcvd ack" ETV
vector 252 WiredNetworkExample.client[4].tcp "send window" ETV
vector 253 WiredNetworkExample.client[4].app[0] packetSent:vector(packetBytes) ETV
attr interpolationmode none
attr source packetSent
attr title "packets sent, vector(packetBytes)"
vector 254 WiredNetworkExample.client[4].tcp "sent seq" ETV
vector 255 WiredNetworkExample.client[4].tcp "unacked bytes" ETV
vector 256 WiredNetworkExample.server.tcp "rcvd seq" ETV
vector 257 WiredNetworkExample.server.tcp "rcvd ack" ETV
vector 258 WiredNetworkExample.server.tcp "advertised window" ETV
vector 259 WiredNetworkExample.server.tcp "send window" ETV
vector 260 WiredNetworkExample.server.tcp tcpRcvQueueBytes ETV
vector 261 WiredNetworkExample.server.tcp "receive window" ETV
vector 262 WiredNetworkExample.server.tcp "sent ack" ETV
vector 263 WiredNetworkExample.client[5].tcp "rcvd seq" ETV
vector 264 WiredNetworkExample.client[5].tcp "rcvd ack" ETV
vector 265 WiredNetworkExample.client[5].tcp "send window" ETV
vector 266 WiredNetworkExample.client[5].app[0] packetSent:vector(packetBytes) ETV
attr interpolationmode none
attr source packetSent
attr title "packets sent, vector(packetBytes)"
vector 267 WiredNetworkExample.client[5].tcp "sent seq" ETV
vector 268 WiredNetworkExample.client[5].tcp "unacked bytes" ETV
vector 269 WiredNetworkExample.server.tcp "rcvd seq" ETV
vector 270 WiredNetworkExample.server.tcp "rcvd ack" ETV
vector 271 WiredNetworkExample.server.tcp "advertised window" ETV
vector 272 WiredNetworkExample.server.tcp "send window" ETV
vector 273 WiredNetworkExample.server.tcp tcpRcvQueueBytes ETV
vector 274 WiredNetworkExample.server.tcp "receive window" ETV
vector 275 WiredNetworkExample.server.tcp "sent ack" ETV
vector 276 WiredNetworkExample.client[6].tcp "rcvd seq" ETV
vector 277 WiredNetworkExample.client[6].tcp "rcvd ack" ETV
vector 278 WiredNetworkExample.client[6].tcp "send window" ETV
vector 279 WiredNetworkExample.client[6].app[0] packetSent:vector(packetBytes) ETV
attr interpolationmode none
attr source packetSent
attr title "packets sent, vector(packetBytes)"
vector 280 WiredNetworkExample.client[6].tcp "sent seq" ETV
vector 281 WiredNetworkExample.client[6].tcp "unacked bytes" ETV
vector 282 WiredNetworkExample.server.tcp "rcvd seq" ETV
vector 283 WiredNetworkExample.server.tcp "rcvd ack" ETV
vector 284 WiredNetworkExample.server.tcp "advertised window" ETV
vector 285 WiredNetworkExample.server.tcp "send window" ETV
vector 286 WiredNetworkExample.server.tcp tcpRcvQueueBytes ETV
vector 287 WiredNetworkExample.server.tcp "receive window" ETV
vector 288 WiredNetworkExample.server.tcp "sent ack" ETV
vector 289 WiredNetworkExample.client[7].tcp "rcvd seq" ETV
vector 290 WiredNetworkExample.client[7].tcp "rcvd ack" ETV
vector 291 WiredNetworkExample.client[7].tcp "send window" ETV
vector 292 WiredNetworkExample.client[7].app[0] packetSent:vector(packetBytes) ETV
attr interpolationmode none
attr source packetSent
attr title "packets sent, vector(packetBytes)"
vector 293 WiredNetworkExample.client[7].tcp "sent seq" ETV
vector 294 WiredNetworkExample.client[7].tcp "unacked bytes" ETV
vector 295 WiredNetworkExample.server.tcp "unacked bytes" ETV
vector 296 WiredNetworkExample.client[8].tcp "rcvd seq" ETV
vector 297 WiredNetworkExample.client[8].tcp "rcvd ack" ETV
vector 298 WiredNetworkExample.client[8].tcp "send window" ETV
vector 299 WiredNetworkExample.client[8].app[0] packetSent:vector(packetBytes) ETV
attr interpolationmode none
attr source packetSent
attr title "packets sent, vector(packetBytes)"
vector 300 WiredNetworkExample.client[8].tcp "sent seq" ETV
vector 301 WiredNetworkExample.client[8].tcp "unacked bytes" ETV
vector 302 WiredNetworkExample.server.tcp "unacked bytes" ETV
vector 303 WiredNetworkExample.client[9].tcp "rcvd seq" ETV
vector 304 WiredNetworkExample.client[9].tcp "rcvd ack" ETV
vector 305 WiredNetworkExample.client[9].tcp "send window" ETV
vector 306 WiredNetworkExample.client[9].app[0] packetSent:vector(packetBytes) ETV
attr interpolationmode none
attr source packetSent
attr title "packets sent, vector(packetBytes)"
vector 307 WiredNetworkExample.client[9].tcp "sent seq" ETV
vector 308 WiredNetworkExample.client[9].tcp "unacked bytes" ETV
vector 309 WiredNetworkExample.server.tcp "unacked bytes" ETV
vector 310 WiredNetworkExample.server.tcp "unacked bytes" ETV
vector 311 WiredNetworkExample.server.tcp "unacked bytes" ETV
vector 312 WiredNetworkExample.server.tcp "unacked bytes" ETV
vector 313 WiredNetworkExample.server.tcp "unacked bytes" ETV
vector 314 WiredNetworkExample.server.tcp "unacked bytes" ETV
vector 315 WiredNetworkExample.server.tcp "rcvd dupAcks" ETV
vector 316 WiredNetworkExample.server.app[0] packetReceived:vector(packetBytes) ETV
attr interpolationmode none
attr source packetReceived
attr title "packets received, vector(packetBytes)"
vector 317 WiredNetworkExample.server.app[0] endToEndDelay:vector ETV
attr interpolationmode none
attr source dataAge(packetReceived)
attr title "end-to-end delay, vector"
attr unit s
vector 318 WiredNetworkExample.server.app[0] packetSent:vector(packetBytes) ETV
attr interpolationmode none
attr source packetSent
attr title "packets sent, vector(packetBytes)"
vector 319 WiredNetworkExample.server.tcp "sent seq" ETV
vector 320 WiredNetworkExample.server.tcp "unacked bytes" ETV
vector 321 WiredNetworkExample.client[0].tcp "measured RTT" ETV
vector 322 WiredNetworkExample.client[0].tcp "smoothed RTT" ETV
vector 323 WiredNetworkExample.client[0].tcp RTTVAR ETV
vector 324 WiredNetworkExample.client[0].tcp RTO ETV
vector 325 WiredNetworkExample.client[0].tcp cwnd ETV
vector 326 WiredNetworkExample.client[0].tcp "rcvd dupAcks" ETV
vector 327 WiredNetworkExample.server.tcp "rcvd dupAcks" ETV
vector 328 WiredNetworkExample.server.tcp "sent seq" ETV
vector 329 WiredNetworkExample.server.tcp "unacked bytes" ETV
vector 330 WiredNetworkExample.server.tcp "rcvd dupAcks" ETV
vector 331 WiredNetworkExample.server.tcp "sent seq" ETV
vector 332 WiredNetworkExample.client[1].tcp "measured RTT" ETV
vector 333 WiredNetworkExample.client[1].tcp "smoothed RTT" ETV
vector 334 WiredNetworkExample.client[1].tcp RTTVAR ETV
vector 335 WiredNetworkExample.client[1].tcp RTO ETV
vector 336 WiredNetworkExample.client[1].tcp cwnd ETV
vector 337 WiredNetworkExample.client[1].tcp "rcvd dupAcks" ETV
vector 338 WiredNetworkExample.client[0].app[0] packetReceived:vector(packetBytes) ETV
attr interpolationmode none
attr source packetReceived
attr title "packets received, vector(packetBytes)"
vector 339 WiredNetworkExample.client[0].app[0] endToEndDelay:vector ETV
attr interpolationmode none
attr source dataAge(packetReceived)
attr title "end-to-end delay, vector"
attr unit s
vector 340 WiredNetworkExample.server.tcp "rcvd dupAcks" ETV
vector 341 WiredNetworkExample.server.tcp "sent seq" ETV
vector 342 WiredNetworkExample.client[2].tcp "measured RTT" ETV
vector 343 WiredNetworkExample.client[2].tcp "smoothed RTT" ETV
vector 344 WiredNetworkExample.client[2].tcp RTTVAR ETV
vector 345 WiredNetworkExample.client[2].tcp RTO ETV
vector 346 WiredNetworkExample.client[2].tcp cwnd ETV
vector 347 WiredNetworkExample.client[2].tcp "rcvd dupAcks" ETV
vector 348 WiredNetworkExample.client[1].app[0] packetReceived:vector(packetBytes) ETV
attr interpolationmode none
attr source packetReceived
attr title "packets received, vector(packetBytes)"
vector 349 WiredNetworkExample.client[1].app[0] endToEndDelay:vector ETV
attr interpolationmode none
attr source dataAge(packetReceived)
attr title "end-to-end delay, vector"
attr unit s
vector 350 WiredNetworkExample.server.tcp "rcvd dupAcks" ETV
vector 351 WiredNetworkExample.server.tcp "sent seq" ETV
vector 352 WiredNetworkExample.client[3].tcp "measured RTT" ETV
vector 353 WiredNetworkExample.client[3].tcp "smoothed RTT" ETV
vector 354 WiredNetworkExample.client[3].tcp RTTVAR ETV
vector 355 WiredNetworkExample.client[3].tcp RTO ETV
vector 356 WiredNetworkExample.client[3].tcp cwnd ETV
vector 357 WiredNetworkExample.client[3].tcp "rcvd dupAcks" ETV
vector 358 WiredNetworkExample.server.tcp "rcvd dupAcks" ETV
vector 359 WiredNetworkExample.server.tcp "sent seq" ETV
vector 360 WiredNetworkExample.client[2].app[0] packetReceived:vector(packetBytes) ETV
attr interpolationmode none
attr source packetReceived
attr title "packets received, vector(packetBytes)"
vector 361 WiredNetworkExample.client[2].app[0] endToEndDelay:vector ETV
attr interpolationmode none
attr source dataAge(packetReceived)
attr title "end-to-end delay, vector"
attr unit s
vector 362 WiredNetworkExample.client[4].tcp "measured RTT" ETV
vector 363 WiredNetworkExample.client[4].tcp "smoothed RTT" ETV
vector 364 WiredNetworkExample.client[4].tcp RTTVAR ETV
vector 365 WiredNetworkExample.client[4].tcp RTO ETV
vector 366 WiredNetworkExample.client[4].tcp cwnd ETV
vector 367 WiredNetworkExample.client[4].tcp "rcvd dupAcks" ETV
vector 368 WiredNetworkExample.server.tcp "rcvd dupAcks" ETV
vector 369 WiredNetworkExample.server.tcp "sent seq" ETV
vector 370 WiredNetworkExample.client[3].app[0] packetReceived:vector(packetBytes) ETV
attr interpolationmode none
attr source packetReceived
attr title "packets received, vector(packetBytes)"
vector 371 WiredNetworkExample.client[3].app[0] endToEndDelay:vector ETV
attr interpolationmode none
attr source dataAge(packetReceived)
attr title "end-to-end delay, vector"
attr unit s
vector 372 WiredNetworkExample.client[5].tcp "measured RTT" ETV
vector 373 WiredNetworkExample.client[5].tcp "smoothed RTT" ETV
vector 374 WiredNetworkExample.client[5].tcp RTTVAR ETV
vector 375 WiredNetworkExample.client[5].tcp RTO ETV
vector 376 WiredNetworkExample.client[5].tcp cwnd ETV
vector 377 WiredNetworkExample.client[5].tcp "rcvd dupAcks" ETV
vector 378 WiredNetworkExample.server.tcp "rcvd dupAcks" ETV
vector 379 WiredNetworkExample.server.tcp "sent seq" ETV
vector 380 WiredNetworkExample.client[4].app[0] packetReceived:vector(packetBytes) ETV
attr interpolationmode none
attr source packetReceived
attr title "packets received, vector(packetBytes)"
vector 381 WiredNetworkExample.client[4].app[0] endToEndDelay:vector ETV
attr interpolationmode none
attr source dataAge(packetReceived)
attr title "end-to-end delay, vector"
attr unit s
vector 382 WiredNetworkExample.client[6].tcp "measured RTT" ETV
vector 383 WiredNetworkExample.client[6].tcp "smoothed RTT" ETV
vector 384 WiredNetworkExample.client[6].tcp RTTVAR ETV
vector 385 WiredNetworkExample.client[6].tcp RTO ETV
vector 386 WiredNetworkExample.client[6].tcp cwnd ETV
vector 387 WiredNetworkExample.client[6].tcp "rcvd dupAcks" ETV
vector 388 WiredNetworkExample.server.tcp "rcvd dupAcks" ETV
vector 389 WiredNetworkExample.server.tcp "sent seq" ETV
vector 390 WiredNetworkExample.client[5].app[0] packetReceived:vector(packetBytes) ETV
attr interpolationmode none
attr source packetReceived
attr title "packets received, vector(packetBytes)"
vector 391 WiredNetworkExample.client[5].app[0] endToEndDelay:vector ETV
attr interpolationmode none
attr source dataAge(packetReceived)
attr title "end-to-end delay, vector"
attr unit s
vector 392 WiredNetworkExample.client[7].tcp "measured RTT" ETV
vector 393 WiredNetworkExample.client[7].tcp "smoothed RTT" ETV
vector 394 WiredNetworkExample.client[7].tcp RTTVAR ETV
vector 395 WiredNetworkExample.client[7].tcp RTO ETV
vector 396 WiredNetworkExample.client[7].tcp cwnd ETV
vector 397 WiredNetworkExample.client[7].tcp "rcvd dupAcks" ETV
vector 398 WiredNetworkExample.server.tcp "rcvd dupAcks" ETV
vector 399 WiredNetworkExample.server.tcp "sent seq" ETV
vector 400 WiredNetworkExample.client[6].app[0] packetReceived:vector(packetBytes) ETV
attr interpolationmode none
attr source packetReceived
attr title "packets received, vector(packetBytes)"
vector 401 WiredNetworkExample.client[6].app[0] endToEndDelay:vector ETV
attr interpolationmode none
attr source dataAge(packetReceived)
attr title "end-to-end delay, vector"
attr unit s
vector 402 WiredNetworkExample.client[8].tcp "measured RTT" ETV
vector 403 WiredNetworkExample.client[8].tcp "smoothed RTT" ETV
vector 404 WiredNetworkExample.client[8].tcp RTTVAR ETV
vector 405 WiredNetworkExample.client[8].tcp RTO ETV
vector 406 WiredNetworkExample.client[8].tcp cwnd ETV
vector 407 WiredNetworkExample.client[8].tcp "rcvd dupAcks" ETV
vector 408 WiredNetworkExample.client[7].app[0] packetReceived:vector(packetBytes) ETV
attr interpolationmode none
attr source packetReceived
attr title "packets received, vector(packetBytes)"
vector 409 WiredNetworkExample.client[7].app[0] endToEndDelay:vector ETV
attr interpolationmode none
attr source dataAge(packetReceived)
attr title "end-to-end delay, vector"
attr unit s
vector 410 WiredNetworkExample.server.tcp "measured RTT" ETV
vector 411 WiredNetworkExample.server.tcp "smoothed RTT" ETV
vector 412 WiredNetworkExample.server.tcp RTTVAR ETV
vector 413 WiredNetworkExample.server.tcp RTO ETV
vector 414 WiredNetworkExample.server.tcp cwnd ETV
vector 415 WiredNetworkExample.client[9].tcp "measured RTT" ETV
vector 416 WiredNetworkExample.client[9].tcp "smoothed RTT" ETV
vector 417 WiredNetworkExample.client[9].tcp RTTVAR ETV
vector 418 WiredNetworkExample.client[9].tcp RTO ETV
vector 419 WiredNetworkExample.client[9].tcp cwnd ETV
vector 420 WiredNetworkExample.client[9].tcp "rcvd dupAcks" ETV
vector 421 WiredNetworkExample.client[8].app[0] packetReceived:vector(packetBytes) ETV
attr interpolationmode none
attr source packetReceived
attr title "packets received, vector(packetBytes)"
vector 422 WiredNetworkExample.client[8].app[0] endToEndDelay:vector ETV
attr interpolationmode none
attr source dataAge(packetReceived)
attr title "end-to-end delay, vector"
attr unit s
vector 423 WiredNetworkExample.client[9].app[0] packetReceived:vector(packetBytes) ETV
attr interpolationmode none
attr source packetReceived
attr title "packets received, vector(packetBytes)"
vector 424 WiredNetworkExample.client[9].app[0] endToEndDelay:vector ETV
attr interpolationmode none
attr source dataAge(packetReceived)
attr title "end-to-end delay, vector"
attr unit s
vector 425 WiredNetworkExample.server.tcp "measured RTT" ETV
vector 426 WiredNetworkExample.server.tcp "smoothed RTT" ETV
vector 427 WiredNetworkExample.server.tcp RTTVAR ETV
vector 428 WiredNetworkExample.server.tcp RTO ETV
vector 429 WiredNetworkExample.server.tcp cwnd ETV
vector 430 WiredNetworkExample.server.tcp "measured RTT" ETV
vector 431 WiredNetworkExample.server.tcp "smoothed RTT" ETV
vector 432 WiredNetworkExample.server.tcp RTTVAR ETV
vector 433 WiredNetworkExample.server.tcp RTO ETV
vector 434 WiredNetworkExample.server.tcp cwnd ETV
vector 435 WiredNetworkExample.server.tcp "measured RTT" ETV
vector 436 WiredNetworkExample.server.tcp "smoothed RTT" ETV
vector 437 WiredNetworkExample.server.tcp RTTVAR ETV
vector 438 WiredNetworkExample.server.tcp RTO ETV
vector 439 WiredNetworkExample.server.tcp cwnd ETV
vector 440 WiredNetworkExample.server.tcp "measured RTT" ETV
vector 441 WiredNetworkExample.server.tcp "smoothed RTT" ETV
vector 442 WiredNetworkExample.server.tcp RTTVAR ETV
vector 443 WiredNetworkExample.server.tcp RTO ETV
vector 444 WiredNetworkExample.server.tcp cwnd ETV
vector 445 WiredNetworkExample.server.tcp "measured RTT" ETV
vector 446 WiredNetworkExample.server.tcp "smoothed RTT" ETV
vector 447 WiredNetworkExample.server.tcp RTTVAR ETV
vector 448 WiredNetworkExample.server.tcp RTO ETV
vector 449 WiredNetworkExample.server.tcp cwnd ETV
vector 450 WiredNetworkExample.server.tcp "measured RTT" ETV
vector 451 WiredNetworkExample.server.tcp "smoothed RTT" ETV
vector 452 WiredNetworkExample.server.tcp RTTVAR ETV
vector 453 WiredNetworkExample.server.tcp RTO ETV
vector 454 WiredNetworkExample.server.tcp cwnd ETV
vector 455 WiredNetworkExample.server.tcp "measured RTT" ETV
vector 456 WiredNetworkExample.server.tcp "smoothed RTT" ETV
vector 457 WiredNetworkExample.server.tcp RTTVAR ETV
vector 458 WiredNetworkExample.server.tcp RTO ETV
vector 459 WiredNetworkExample.server.tcp cwnd ETV
vector 460 WiredNetworkExample.server.tcp "measured RTT" ETV
vector 461 WiredNetworkExample.server.tcp "smoothed RTT" ETV
vector 462 WiredNetworkExample.server.tcp RTTVAR ETV
vector 463 WiredNetworkExample.server.tcp RTO ETV
vector 464 WiredNetworkExample.server.tcp cwnd ETV
vector 465 WiredNetworkExample.server.tcp "measured RTT" ETV
vector 466 WiredNetworkExample.server.tcp "smoothed RTT" ETV
vector 467 WiredNetworkExample.server.tcp RTTVAR ETV
vector 468 WiredNetworkExample.server.tcp RTO ETV
vector 469 WiredNetworkExample.server.tcp cwnd ETV
0	51444 4552 0 7557 0 1.00041068 220 0 9 722 3750
1	55996 6251 0 7559 0 1.00041068 302 0 1 151 151
2	62247 1337 0 7333 0 1.000398936 65 0 2 50 68
3	63584 5167 0 7538 0 1.000409976 250 0 1 125 125
4	68751 629 12 4886 1 1.000239812 31 0 0 0 0
5	69380 629 12 4886 1 1.000239812 25 7504 261259 6217688 1607013547352
6	70009 557 12 4886 1 1.000239812 24 7504 7504 180096 1351440384
7	70566 600 12 4886 1 1.000239812 24 0 253755 5780085 1452604736239
8	71166 635 13 5303 1 1.000269956 31 0 0 0 0
9	71801 633 13 5303 1 1.000269956 25 7504 261259 6217688 1607013547352
10	72434 585 13 5303 1 1.000269956 24 7504 7504 180096 1351440384
11	73019 628 13 5303 1 1.000269956 24 0 253755 5780085 1452604736239
12	73647 664 14 5629 1 1.000290952 31 0 0 0 0
13	74311 655 14 5629 1 1.000290952 25 7504 261259 6217688 1607013547352
14	74966 583 14 5629 1 1.000290952 24 7504 7504 180096 1351440384
15	75549 626 14 5629 1 1.000290952 24 0 253755 5780085 1452604736239
16	76175 656 15 5981 1 1.000313284 31 0 0 0 0
17	76831 649 15 5981 1 1.000313284 25 7504 261259 6217688 1607013547352
18	77480 576 15 5981 1 1.000313284 24 7504 7504 180096 1351440384
19	78056 619 15 5981 1 1.000313284 24 0 253755 5780085 1452604736239
20	78675 666 16 6348 1 1.00033562 31 0 0 0 0
21	79341 658 16 6348 1 1.00033562 25 7504 261259 6217688 1607013547352
22	79999 585 16 6348 1 1.00033562 24 7504 7504 180096 1351440384
23	80584 628 16 6348 1 1.00033562 24 0 253755 5780085 1452604736239
24	81212 666 17 6717 1 1.000357956 31 0 0 0 0
25	81878 659 17 6717 1 1.000357956 25 7504 261260 6217712 1607025967744
26	82537 586 17 6717 1 1.000357956 24 7504 7504 180096 1351440384
27	83123 629 17 6717 1 1.000357956 24 0 253756 5780108 1452616296432
28	83752 668 18 7088 1 1.000380292 31 0 0 0 0
29	84420 660 18 7088 1 1.000380292 25 7504 261260 6217712 1607025967744
30	85080 587 18 7088 1 1.000380292 24 7504 7504 180096 1351440384
31	85667 630 18 7088 1 1.000380292 24 0 253756 5780108 1452616296432
32	86297 664 19 7458 1 1.000402628 31 0 0 0 0
33	86961 655 19 7458 1 1.000402628 25 7504 261260 6217712 1607025967744
34	87616 583 19 7458 1 1.000402628 24 7504 7504 180096 1351440384
35	88199 626 19 7458 1 1.000402628 24 0 253756 5780108 1452616296432
36	88825 524 20 7545 1 1.000410228 25 0 0 0 0
37	89349 568 20 7545 1 1.000410228 22 7504 259652 5435540 1403094380624
38	89917 501 20 7545 1 1.000410228 21 7504 7504 157584 1182510336
39	90418 538 20 7545 1 1.000410228 21 0 252148 5020448 1260254616640
40	90956 406 21 7440 1 1.000401076 19 0 0 0 0
41	91362 445 21 7440 1 1.000401076 17 7504 259116 4139424 1067110813696
42	91807 388 21 7440 1 1.000401076 16 7504 7504 120064 900960256
43	92195 415 21 7440 1 1.000401076 16 0 251612 3761852 943441608560
44	92610 11 22 22 1 1 1 28 28 28 784
45	92621 11 23 23 1 1 1 28 28 28 784
46	92632 11 24 24 1 1 1 28 28 28 784
47	92643 11 25 25 1 1 1 28 28 28 784
48	92654 11 26 26 1 1 1 28 28 28 784
49	92665 11 27 27 1 1 1 28 28 28 784
50	92676 11 28 28 1 1 1 28 28 28 784
51	92687 11 29 29 1 1 1 28 28 28 784
52	92698 11 30 30 1 1 1 28 28 28 784
53	92709 11 31 31 1 1 1 28 28 28 784
54	92720 570 32 4889 1 1.000239812 25 28 576 9032 4992160
55	93290 574 33 5306 1 1.000269956 25 28 576 9032 4992160
56	93864 572 34 5632 1 1.000290952 25 28 576 9032 4992160
57	94436 565 35 5984 1 1.000313284 25 28 576 9032 4992160
58	95001 574 36 6351 1 1.00033562 25 28 576 9032 4992160
59	95575 575 37 6720 1 1.000357956 25 28 576 9032 4992160
60	96150 576 38 7091 1 1.000380292 25 28 576 9032 4992160
61	96726 572 39 7461 1 1.000402628 25 28 576 9032 4992160
62	97298 495 40 7548 1 1.000410228 22 28 576 8912 4987360
63	97793 389 41 7444 1 1.000401076 17 28 576 6568 3658656
64	98182 570 42 4890 1 1.000239812 25 64 594 9550 5333500
65	98752 574 43 5307 1 1.000269956 25 64 594 9550 5333500
66	99326 572 44 5633 1 1.000290952 25 64 594 9550 5333500
67	99898 565 45 5985 1 1.000313284 25 64 594 9550 5333500
68	100463 574 46 6352 1 1.00033562 25 64 594 9550 5333500
69	101037 575 47 6721 1 1.000357956 25 64 594 9550 5333500
70	101612 576 48 7092 1 1.000380292 25 64 594 9550 5333500
71	102188 572 49 7462 1 1.000402628 25 64 594 9550 5333500
72	102760 495 50 7549 1 1.000410228 22 64 594 9358 5321212
73	103255 389 51 7446 1 1.000401076 17 64 594 6918 3905772
74	103644 585 62 4893 1.000000576 1.000240388 25 64 594 9550 5333500
75	104229 582 63 5310 1.000000576 1.000270532 25 64 594 9550 5333500
76	104811 586 64 5636 1.000000576 1.000291528 25 64 594 9550 5333500
77	105397 583 65 5988 1.000000576 1.00031386 25 64 594 9550 5333500
78	105980 583 66 6364 1.000000576 1.000336196 25 64 594 9550 5333500
79	106563 583 67 6731 1.000000576 1.000358532 25 64 594 9550 5333500
80	107146 580 68 7107 1.000000576 1.000380868 25 64 594 9550 5333500
81	107726 581 69 7465 1.000000576 1.000403204 25 64 594 9550 5333500
82	108307 467 70 7562 1.000000576 1.0004137 20 64 594 8700 4964280
83	108774 348 71 7518 1.000000576 1.00040946 15 64 594 5730 3200100
84	109122 585 72 4894 1.000000626 1.000240438 25 64 594 9550 5333500
85	109707 585 72 4894 1.000000626 1.000240438 25 64 594 9550 5333500
86	110292 583 73 5311 1.000000626 1.000270582 25 64 594 9550 5333500
87	110875 583 73 5311 1.000000626 1.000270582 25 64 594 9550 5333500
88	111458 586 74 5637 1.000000626 1.000291578 25 64 594 9550 5333500
89	112044 586 74 5637 1.000000626 1.000291578 25 64 594 9550 5333500
90	112630 583 75 5989 1.000000626 1.00031391 25 64 594 9550 5333500
91	113213 583 75 5989 1.000000626 1.00031391 25 64 594 9550 5333500
92	113796 583 76 6365 1.000000626 1.000336246 25 64 594 9550 5333500
93	114379 583 76 6365 1.000000626 1.000336246 25 64 594 9550 5333500
94	114962 583 77 6732 1.000000626 1.000358582 25 64 594 9550 5333500
95	115545 583 77 6732 1.000000626 1.000358582 25 64 594 9550 5333500
96	116128 581 78 7108 1.000000626 1.000380918 25 64 594 9550 5333500
97	116709 581 78 7108 1.000000626 1.000380918 25 64 594 9550 5333500
98	117290 582 79 7466 1.000000626 1.000403254 25 64 594 9550 5333500
99	117872 582 79 7466 1.000000626 1.000403254 25 64 594 9550 5333500
100	118454 488 80 7563 1.000000626 1.00041375 20 64 594 8700 4964280
101	118942 488 80 7563 1.000000626 1.00041375 20 64 594 8700 4964280
102	119430 363 81 7519 1.000000626 1.00040951 15 64 594 5730 3200100
103	119793 363 81 7519 1.000000626 1.00040951 15 64 594 5730 3200100
104	120156 5726 92 7565 1.000000626 1.00041375 235 64 594 90830 50832380
105	125882 590 93 5219 1.000000626 1.00026509 25 64 594 5310 2543580
106	126472 594 94 5508 1.000000626 1.000286082 25 64 594 5310 2543580
107	127066 594 95 5861 1.000000626 1.000308418 25 64 594 5310 2543580
108	127660 592 96 6227 1.000000626 1.000330754 25 64 594 5310 2543580
109	128252 591 97 6592 1.000000626 1.00035309 25 64 594 5310 2543580
110	128843 593 98 6956 1.000000626 1.000375426 25 64 594 5310 2543580
111	129436 594 99 7308 1.000000626 1.000397762 25 64 594 5310 2543580
112	130030 545 100 7553 1.000000626 1.000410274 23 64 594 4122 1837908
113	130575 447 101 7421 1.000000626 1.00040045 19 64 594 2806 1124044
114	131022 592 103 4744 1.000000626 1.000234946 25 64 594 5310 2543580
115	131614 3274 212 7533 1.000001202 1.000409926 135 64 594 48390 26708460
116	134888 3267 213 7534 1.000001252 1.000409976 135 64 594 48390 26708460
117	138155 3267 213 7534 1.000001252 1.000409976 135 64 594 48390 26708460
118	141422 3267 214 7535 1.000001252 1.000409976 135 46 576 45960 25010160
119	144689 227 215 782 1.000001252 1.0000073 10 28 28 280 7840
120	144916 3856 216 7560 1.000001252 1.00041068 160 28 576 42768 22703168
121	148772 3856 217 7561 1.000001252 1.00041068 160 64 594 46280 24369680
122	152628 590 218 4882 1.000001298 1.000239762 25 64 594 5310 2543580
123	153218 593 219 5299 1.000001298 1.000269906 25 64 594 5310 2543580
124	153811 592 220 5625 1.000001298 1.000290902 25 64 594 5310 2543580
125	154403 588 221 5977 1.000001298 1.000313234 25 64 594 5310 2543580
126	154991 593 222 6335 1.000001298 1.00033557 25 64 594 5310 2543580
127	155584 593 223 6713 1.000001298 1.000357906 25 64 594 5310 2543580
128	156177 594 224 7084 1.000001298 1.000380242 25 64 594 5310 2543580
129	156771 592 225 7454 1.000001298 1.000402578 25 64 594 5310 2543580
130	157363 513 226 7540 1.000001298 1.000410178 22 64 594 3528 1485072
131	157876 447 227 7436 1.000001298 1.000401026 19 64 594 2806 1124044
132	158323 590 230 4883 1.000001348 1.000239812 25 64 594 5310 2543580
133	158913 590 230 4883 1.000001348 1.000239812 25 64 594 5310 2543580
134	159503 593 231 5300 1.000001348 1.000269956 25 64 594 5310 2543580
135	160096 593 231 5300 1.000001348 1.000269956 25 64 594 5310 2543580
136	160689 592 232 5626 1.000001348 1.000290952 25 64 594 5310 2543580
137	161281 592 232 5626 1.000001348 1.000290952 25 64 594 5310 2543580
138	161873 588 233 5978 1.000001348 1.000313284 25 64 594 5310 2543580
139	162461 588 233 5978 1.000001348 1.000313284 25 64 594 5310 2543580
140	163049 593 234 6345 1.000001348 1.00033562 25 64 594 5310 2543580
141	163642 593 234 6345 1.000001348 1.00033562 25 64 594 5310 2543580
142	164235 593 235 6714 1.000001348 1.000357956 25 64 594 5310 2543580
143	164828 593 235 6714 1.000001348 1.000357956 25 64 594 5310 2543580
144	165421 594 236 7085 1.000001348 1.000380292 25 64 594 5310 2543580
145	166015 594 236 7085 1.000001348 1.000380292 25 64 594 5310 2543580
146	166609 592 237 7455 1.000001348 1.000402628 25 64 594 5310 2543580
147	167201 592 237 7455 1.000001348 1.000402628 25 64 594 5310 2543580
148	167793 512 238 7542 1.000001348 1.000410228 22 64 594 3528 1485072
149	168305 512 238 7542 1.000001348 1.000410228 22 64 594 3528 1485072
150	168817 447 239 7437 1.000001348 1.000401076 19 64 594 2806 1124044
151	169264 447 239 7437 1.000001348 1.000401076 19 64 594 2806 1124044
152	169711 590 240 4884 1.000001348 1.000239812 25 46 576 4860 2360520
153	170301 593 241 5301 1.000001348 1.000269956 25 46 576 4860 2360520
154	170894 592 242 5627 1.000001348 1.000290952 25 46 576 4860 2360520
155	171486 588 243 5979 1.000001348 1.000313284 25 46 576 4860 2360520
156	172074 593 244 6346 1.000001348 1.00033562 25 46 576 4860 2360520
157	172667 593 245 6715 1.000001348 1.000357956 25 46 576 4860 2360520
158	173260 594 246 7086 1.000001348 1.000380292 25 46 576 4860 2360520
159	173854 592 247 7456 1.000001348 1.000402628 25 46 576 4860 2360520
160	174446 512 248 7543 1.000001348 1.000410228 22 46 576 3132 1365192
161	174958 447 249 7438 1.000001348 1.000401076 19 46 576 2464 1029184
162	175405 3660 270 7541 1.000001828 1.000410224 152 64 594 43648 22941952
163	179065 3669 272 7550 1.000001878 1.000410274 152 64 594 43648 22941952
164	182734 3669 272 7550 1.000001878 1.000410274 152 64 594 43648 22941952
165	186403 3040 931 7537 1.000008648 1.000409976 125 40 576 45240 24966560
166	189443 3097 931 7537 1.000008648 1.000409976 125 0 3.992e-06 0.00012508 4.89473216e-10
167	192540 3041 932 7538 1.000008648 1.000409976 125 40 576 45240 24966560
168	195581 3041 932 7538 1.000008648 1.000409976 125 47 583 46115 25606045
169	198622 3014 934 7525 1.000009056 1.000409728 124 47 583 45532 25266156
170	201636 3014 934 7525 1.000009056 1.000409728 124 40 576 44664 24634784
171	204650 414 937 7488 1.000009056 1.000404816 15 250000 254825 3783246 954235686510
172	205064 409 937 7488 1.000009056 1.000404816 15 0 251611 3510226 880125989550
173	205473 523 937 7488 1.000009056 1.000404816 19 257505 262865 4940835 1284884135475
174	205996 127 937 4532 1.000009056 1.000215592 5 7504 7504 37520 281550080
175	206123 633 937 7488 1.000009056 1.000404816 28 0 0 0 0
176	206756 460 937 7488 1.000009056 1.000404816 18 7504 7504 135072 1013580288
177	207216 496 937 7488 1.000009056 1.000404816 18 250001 255361 4548258 1149301474098
178	207712 3718 939 7532 1.000009056 1.000409728 154 40 576 43720 23362080
179	211430 4293 939 7557 1.000009056 1.00041068 151 0 2.1856e-05 0.00088204 1.115841888e-08
180	215723 3654 940 7559 1.000009056 1.00041068 151 40 576 43064 23027104
181	219377 3654 940 7559 1.000009056 1.00041068 151 47 583 44121 23637399
182	223031 3629 954 7556 1.000009464 1.00041068 150 47 583 43538 23297510
183	226660 3629 954 7556 1.000009464 1.00041068 150 40 576 42488 22695328
184	230289 360 963 7528 1.000009728 1.000409728 13 250000 253753 3274132 824637010364
185	230649 355 963 7528 1.000009728 1.000409728 13 0 251611 3007004 753509798908
186	231004 469 963 7528 1.000009728 1.000409728 17 257505 261793 4415641 1146969623009
187	231473 127 963 4933 1.000009728 1.0002412 5 7504 7504 37520 281550080
188	231600 545 963 7528 1.000009728 1.000409728 24 0 0 0 0
189	232145 410 963 7528 1.000009728 1.000409728 16 7504 7504 120064 900960256
190	232555 442 963 7528 1.000009728 1.000409728 16 250001 254289 4038072 1019156453152
191	232997 330 988 5079 1.0000104 1.000252368 12 250000 253753 3020379 760246425355
192	233327 325 988 5079 1.0000104 1.000252368 12 0 251611 2755393 690201703587
193	233652 439 988 5079 1.0000104 1.000252368 16 257505 261257 4153848 1078434048160
194	234091 127 988 5079 1.0000104 1.000252368 5 7504 7504 37520 281550080
195	234218 497 988 5079 1.0000104 1.000252368 22 0 0 0 0
196	234715 384 988 5079 1.0000104 1.000252368 15 7504 7504 112560 844650240
197	235099 414 988 5079 1.0000104 1.000252368 15 250001 253753 3783783 954493557631
198	235513 415 1004 4886 1.000010716 1.000239812 15 250002 253219 3768804 946939173874
199	235928 415 1004 4886 1.000010716 1.000239812 15 250001 253753 3783783 954493557631
200	236343 206 1004 4490 1.000010716 1.00021126 8 7504 7504 60032 450480128
201	236549 29 1008 1008 1.000010716 1.000010716 1 1000000 1000000 1000000 1000000000000
202	236578 416 1010 4490 1.000010716 1.00021126 15 250001 257505 3806295 965939218015
203	236994 381 1010 4490 1.000010716 1.00021126 15 0 4288 30552 84752320
204	237375 332 1029 5357 1.000011072 1.00027336 12 250000 253753 3020379 760246425355
205	237707 327 1029 5357 1.000011072 1.00027336 12 0 251611 2755393 690201703587
206	238034 442 1029 5357 1.000011072 1.00027336 16 257505 261257 4153848 1078434048160
207	238476 126 1029 5357 1.000011072 1.00027336 5 7504 7504 37520 281550080
208	238602 500 1029 5357 1.000011072 1.00027336 22 0 0 0 0
209	239102 384 1029 5357 1.000011072 1.00027336 15 7504 7504 112560 844650240
210	239486 414 1029 5357 1.000011072 1.00027336 15 250001 253753 3783783 954493557631
211	239900 418 1050 5303 1.000011388 1.000269956 15 250002 253219 3768804 946939173874
212	240318 418 1050 5303 1.000011388 1.000269956 15 250001 253753 3783783 954493557631
213	240736 207 1050 4874 1.000011388 1.00023826 8 7504 7504 60032 450480128
214	240943 29 1054 1054 1.000011388 1.000011388 1 1000000 1000000 1000000 1000000000000
215	240972 418 1056 4874 1.000011388 1.00023826 15 250001 257505 3806295 965939218015
216	241390 383 1056 4874 1.000011388 1.00023826 15 0 4288 30552 84752320
217	241773 335 1077 5683 1.000011744 1.000294352 12 250000 253753 3020379 760246425355
218	242108 330 1077 5683 1.000011744 1.000294352 12 0 251611 2755393 690201703587
219	242438 446 1077 5683 1.000011744 1.000294352 16 257505 261257 4153848 1078434048160
220	242884 130 1077 5683 1.000011744 1.000294352 5 7504 7504 37520 281550080
221	243014 503 1077 5683 1.000011744 1.000294352 22 0 0 0 0
222	243517 388 1077 5683 1.000011744 1.000294352 15 7504 7504 112560 844650240
223	243905 418 1077 5683 1.000011744 1.000294352 15 250001 253753 3783783 954493557631
224	244323 417 1098 5629 1.00001206 1.000290952 15 250002 253219 3768804 946939173874
225	244740 417 1098 5629 1.00001206 1.000290952 15 250001 253753 3783783 954493557631
226	245157 206 1098 5239 1.00001206 1.000266388 8 7504 7504 60032 450480128
227	245363 28 1102 1102 1.00001206 1.00001206 1 1000000 1000000 1000000 1000000000000
228	245391 417 1104 5239 1.00001206 1.000266388 15 250001 257505 3806295 965939218015
229	245808 382 1104 5239 1.00001206 1.000266388 15 0 4288 30552 84752320
230	246190 332 1125 6033 1.000012416 1.000315344 12 250000 253753 3020379 760246425355
231	246522 327 1125 6033 1.000012416 1.000315344 12 0 251612 2755404 690207214384
232	246849 444 1125 6033 1.000012416 1.000315344 16 257505 261257 4153848 1078434048160
233	247293 130 1125 6033 1.000012416 1.000315344 5 7504 7504 37520 281550080
234	247423 498 1125 6033 1.000012416 1.000315344 22 0 0 0 0
235	247921 386 1125 6033 1.000012416 1.000315344 15 7504 7504 112560 844650240
236	248307 416 1125 6033 1.000012416 1.000315344 15 250001 253753 3783783 954493557631
237	248723 413 1146 5981 1.000012732 1.000313284 15 250002 253219 3768804 946939173874
238	249136 413 1146 5981 1.000012732 1.000313284 15 250001 253753 3783783 954493557631
239	249549 203 1146 5575 1.000012732 1.000288724 8 7504 7504 60032 450480128
240	249752 29 1150 1150 1.000012732 1.000012732 1 1000000 1000000 1000000 1000000000000
241	249781 410 1152 5575 1.000012732 1.000288724 15 250001 257505 3806295 965939218015
242	250191 375 1152 5575 1.000012732 1.000288724 15 0 4288 30552 84752320
243	250566 332 1173 6372 1.000013088 1.000336336 12 250000 253753 3020379 760246425355
244	250898 327 1173 6372 1.000013088 1.000336336 12 0 251612 2755404 690207214384
245	251225 443 1173 6372 1.000013088 1.000336336 16 257505 261257 4153848 1078434048160
246	251668 129 1173 6372 1.000013088 1.000336336 5 7504 7504 37520 281550080
247	251797 498 1173 6372 1.000013088 1.000336336 22 0 0 0 0
248	252295 385 1173 6372 1.000013088 1.000336336 15 7504 7504 112560 844650240
249	252680 415 1173 6372 1.000013088 1.000336336 15 250001 253753 3783783 954493557631
250	253095 418 1194 6348 1.000013404 1.00033562 15 250002 253219 3768804 946939173874
251	253513 418 1194 6348 1.000013404 1.00033562 15 250001 253753 3783783 954493557631
252	253931 207 1194 5946 1.000013404 1.00031106 8 7504 7504 60032 450480128
253	254138 29 1198 1198 1.000013404 1.000013404 1 1000000 1000000 1000000 1000000000000
254	254167 418 1200 5946 1.000013404 1.00031106 15 250001 257505 3806295 965939218015
255	254585 383 1200 5946 1.000013404 1.00031106 15 0 4288 30552 84752320
256	254968 333 1221 6708 1.00001376 1.000357328 12 250000 253753 3020379 760246425355
257	255301 328 1221 6708 1.00001376 1.000357328 12 0 251612 2755404 690207214384
258	255629 444 1221 6708 1.00001376 1.000357328 16 257505 261257 4153848 1078434048160
259	256073 129 1221 6708 1.00001376 1.000357328 5 7504 7504 37520 281550080
260	256202 501 1221 6708 1.00001376 1.000357328 22 0 0 0 0
261	256703 387 1221 6708 1.00001376 1.000357328 15 7504 7504 112560 844650240
262	257090 417 1221 6708 1.00001376 1.000357328 15 250001 253753 3783783 954493557631
263	257507 418 1242 6717 1.000014076 1.000357956 15 250003 253220 3768819 946946711497
264	257925 418 1242 6717 1.000014076 1.000357956 15 250001 253753 3783783 954493557631
265	258343 208 1242 6304 1.000014076 1.000333396 8 7504 7504 60032 450480128
266	258551 29 1246 1246 1.000014076 1.000014076 1 1000000 1000000 1000000 1000000000000
267	258580 420 1248 6304 1.000014076 1.000333396 15 250001 257505 3806295 965939218015
268	259000 385 1248 6304 1.000014076 1.000333396 15 0 4288 30552 84752320
269	259385 334 1269 7048 1.000014432 1.00037832 12 250000 253753 3020379 760246425355
270	259719 329 1269 7048 1.000014432 1.00037832 12 0 251612 2755404 690207214384
271	260048 444 1269 7048 1.000014432 1.00037832 16 257505 261257 4153848 1078434048160
272	260492 128 1269 7048 1.000014432 1.00037832 5 7504 7504 37520 281550080
273	260620 502 1269 7048 1.000014432 1.00037832 22 0 0 0 0
274	261122 386 1269 7048 1.000014432 1.00037832 15 7504 7504 112560 844650240
275	261508 416 1269 7048 1.000014432 1.00037832 15 250001 253753 3783783 954493557631
276	261924 419 1290 7088 1.000014748 1.000380292 15 250003 253220 3768819 946946711497
277	262343 419 1290 7088 1.000014748 1.000380292 15 250001 253753 3783783 954493557631
278	262762 208 1290 6662 1.000014748 1.000355732 8 7504 7504 60032 450480128
279	262970 29 1294 1294 1.000014748 1.000014748 1 1000000 1000000 1000000 1000000000000
280	262999 420 1296 6662 1.000014748 1.000355732 15 250001 257505 3806295 965939218015
281	263419 385 1296 6662 1.000014748 1.000355732 15 0 4288 30552 84752320
282	263804 334 1317 7363 1.000015104 1.000399312 12 250000 253753 3020379 760246425355
283	264138 329 1317 7363 1.000015104 1.000399312 12 0 251612 2755404 690207214384
284	264467 444 1317 7363 1.000015104 1.000399312 16 257505 261257 4153848 1078434048160
285	264911 130 1317 7363 1.000015104 1.000399312 5 7504 7504 37520 281550080
286	265041 500 1317 7363 1.000015104 1.000399312 22 0 0 0 0
287	265541 386 1317 7363 1.000015104 1.000399312 15 7504 7504 112560 844650240
288	265927 416 1317 7363 1.000015104 1.000399312 15 250001 253753 3783783 954493557631
289	266343 417 1338 7458 1.00001542 1.000402628 15 250003 253220 3768819 946946711497
290	266760 417 1338 7458 1.00001542 1.000402628 15 250001 253753 3783783 954493557631
291	267177 206 1338 7032 1.00001542 1.000378068 8 7504 7504 60032 450480128
292	267383 28 1342 1342 1.00001542 1.00001542 1 1000000 1000000 1000000 1000000000000
293	267411 417 1344 7032 1.00001542 1.000378068 15 250001 257505 3806295 965939218015
294	267828 382 1344 7032 1.00001542 1.000378068 15 0 4288 30552 84752320
295	268210 196 1365 4532 1.000015744 1.000215592 8 0 2144 6968 10055360
296	268406 329 1386 7545 1.000016092 1.000410228 12 250003 251612 3010767 755398525337
297	268735 329 1386 7545 1.000016092 1.000410228 12 250001 253753 3022524 761321802604
298	269064 203 1386 7411 1.000016092 1.000400404 8 7504 7504 60032 450480128
299	269267 29 1390 1390 1.000016092 1.000016092 1 1000000 1000000 1000000 1000000000000
300	269296 410 1392 7411 1.000016092 1.000400404 15 250001 257505 3806295 965939218015
301	269706 375 1392 7411 1.000016092 1.000400404 15 0 4288 30552 84752320
302	270081 196 1413 4933 1.000016416 1.0002412 8 0 2144 6968 10055360
303	270277 252 1433 7440 1.000016764 1.000401076 9 250003 251612 2255931 565472729705
304	270529 252 1433 7440 1.000016764 1.000401076 9 250001 252681 2261801 568421783497
305	270781 156 1433 7440 1.000016764 1.000401076 6 7504 7504 45024 337860096
306	270937 29 1437 1437 1.000016764 1.000016764 1 1000000 1000000 1000000 1000000000000
307	270966 308 1439 7440 1.000016764 1.000401076 11 250001 255361 2779491 702356167931
308	271274 281 1439 7440 1.000016764 1.000401076 11 0 3216 16616 34762816
309	271555 200 1456 5079 1.000017088 1.000252368 8 0 2144 6968 10055360
310	271755 193 1483 5357 1.00001776 1.00027336 8 0 2144 6968 10055360
311	271948 199 1503 5683 1.000018432 1.000294352 8 0 2144 6968 10055360
312	272147 200 1523 6033 1.000019104 1.000315344 8 0 2144 6968 10055360
313	272347 198 1543 6372 1.000019776 1.000336336 8 0 2144 6968 10055360
314	272545 200 1563 6708 1.000020448 1.000357328 8 0 2144 6968 10055360
315	272745 294 1602 7488 1.000029648 1.000404816 13 0 0 0 0
316	273039 1831 1603 7529 1.000029648 1.000409728 74 536 536 39664 21259904
317	274870 2377 1603 7529 1.000029648 1.000409728 74 1.8932e-05 0.00039834 0.01516892 4.019148458272e-06
318	277247 1831 1603 7529 1.000029648 1.000409728 74 536 536 39664 21259904
319	279078 192 1605 4532 1.000029648 1.000215592 7 250003 253219 1761277 443164711535
320	279270 196 1617 7048 1.000030024 1.00037832 8 0 2144 6968 10055360
321	279466 96 1645 4220 1.000031276 1.000195396 3 2.056e-05 0.000104288 0.00018468 1.4878568768e-08
322	279562 98 1645 4220 1.000031276 1.000195396 3 2.57e-06 2.1547781e-05 3.3845531e-05 5.6554088608646e-10
323	279660 102 1645 4220 1.000031276 1.000195396 3 0.502461456969 0.65625257 1.732942183469 1.0128729270884
324	279762 103 1645 4220 1.000031276 1.000195396 3 2.009867375657 2.62501285 6.931802579407 16.206111629552
325	279865 180 1645 4490 1.000031276 1.00021126 7 1072 4288 18760 58321088
326	280045 317 1645 4886 1.000031276 1.000239812 14 0 0 0 0
327	280362 250 1665 7528 1.000035232 1.000409728 11 0 0 0 0
328	280612 192 1668 4933 1.000035232 1.0002412 7 250003 253219 1761277 443164711535
329	280804 198 1680 7363 1.000035608 1.000399312 8 0 2144 6968 10055360
330	281002 227 1721 5079 1.000040816 1.000252368 10 0 0 0 0
331	281229 196 1724 5079 1.000040816 1.000252368 7 250003 253219 1761277 443164711535
332	281425 96 1732 4395 1.000040852 1.000207236 3 2.9464e-05 0.00010496 0.000195848 1.5657636672e-08
333	281521 101 1732 4395 1.000040852 1.000207236 3 3.683e-06 2.2658047e-05 3.7241672e-05 6.4577520824483e-10
334	281622 104 1732 4395 1.000040852 1.000207236 3 0.502462298891 0.656253683 1.732945172141 1.0128764211931
335	281726 105 1732 4395 1.000040852 1.000207236 3 2.009871853611 2.625018415 6.931817930236 16.206183229765
336	281831 181 1732 4874 1.000040852 1.00023826 7 1072 4288 18760 58321088
337	282012 320 1732 5303 1.000040852 1.000269956 14 0 0 0 0
338	282332 172 1764 4887 1.00004442 1.000239812 7 536 536 3752 2011072
339	282504 222 1764 4887 1.00004442 1.000239812 7 3.3704e-05 0.000229096 0.001104624 2.14517669856e-07
340	282726 227 1789 5357 1.000045728 1.00027336 10 0 0 0 0
341	282953 190 1792 5357 1.000045728 1.00027336 7 250003 253219 1761277 443164711535
342	283143 96 1827 4412 1.000046436 1.000207908 3 3.4376e-05 0.000104288 0.000195848 1.5327706176e-08
343	283239 100 1827 4412 1.000046436 1.000207908 3 4.297e-06 2.2580391e-05 3.7785266e-05 6.4732000372851e-10
344	283339 103 1827 4412 1.000046436 1.000207908 3 0.502462153172 0.656254297 1.732945570922 1.0128770008185
345	283442 104 1827 4412 1.000046436 1.000207908 3 2.009871193079 2.625021485 6.931820068954 16.206195448432
346	283546 181 1827 5239 1.000046436 1.000266388 7 1072 4288 18760 58321088
347	283727 320 1827 5629 1.000046436 1.000290952 14 0 0 0 0
348	284047 174 1841 5304 1.000050004 1.000269956 7 536 536 3752 2011072
349	284221 229 1841 5304 1.000050004 1.000269956 7 3.8616e-05 0.000258568 0.00125596 2.76617134016e-07
350	284450 229 1853 5683 1.00005064 1.000294352 10 0 0 0 0
351	284679 195 1856 5683 1.00005064 1.000294352 7 250003 253219 1761277 443164711535
352	284874 93 1910 4962 1.00005202 1.000242076 3 3.9288e-05 0.000124856 0.000229344 2.138360768e-08
353	284967 99 1910 4962 1.00005202 1.000242076 3 4.911e-06 2.6498234e-05 4.3856359e-05 8.8120524688438e-10
354	285066 102 1910 4962 1.00005202 1.000242076 3 0.502465811453 0.656254911 1.732951305703 1.0128831626304
355	285168 103 1910 4962 1.00005202 1.000242076 3 2.009889744046 2.625024555 6.931849079171 16.206320081722
356	285271 177 1910 5575 1.00005202 1.000288724 7 1072 4288 18760 58321088
357	285448 315 1910 5981 1.00005202 1.000313284 14 0 0 0 0
358	285763 226 1923 6033 1.000055552 1.000315344 10 0 0 0 0
359	285989 196 1926 6033 1.000055552 1.000315344 7 250004 253220 1761284 443168234096
360	286185 174 1934 5630 1.000055588 1.000290952 7 536 536 3752 2011072
361	286359 228 1934 5630 1.000055588 1.000290952 7 4.3528e-05 0.000278892 0.001363168 3.24199919648e-07
362	286587 95 1993 5548 1.000057604 1.000288052 3 4.42e-05 0.000159664 0.000274648 3.2456607552e-08
363	286682 101 1993 5548 1.000057604 1.000288052 3 5.525e-06 3.1930078e-05 5.1137453e-05 1.2372628917267e-09
364	286783 104 1993 5548 1.000057604 1.000288052 3 0.502471021734 0.656255525 1.732958288484 1.0128905350087
365	286887 105 1993 5548 1.000057604 1.000288052 3 2.009916017014 2.625027625 6.931884291389 16.206468774214
366	286992 181 1993 5946 1.000057604 1.00031106 7 1072 4288 18760 58321088
367	287173 320 1993 6348 1.000057604 1.00033562 14 0 0 0 0
368	287493 226 2005 6372 1.000060464 1.000336336 10 0 0 0 0
369	287719 194 2008 6372 1.000060464 1.000336336 7 250004 253220 1761284 443168234096
370	287913 173 2030 5982 1.000061172 1.000313284 7 536 536 3752 2011072
371	288086 226 2030 5982 1.000061172 1.000313284 7 4.844e-05 0.000300552 0.00147572 3.78702891584e-07
372	288312 97 2076 5921 1.000063188 1.000310388 3 4.9112e-05 0.000170832 0.000296312 3.7427632192e-08
373	288409 101 2076 5921 1.000063188 1.000310388 3 6.139e-06 3.4406922e-05 5.5463547e-05 1.4440591381547e-09
374	288510 104 2076 5921 1.000063188 1.000310388 3 0.502473277016 0.656256139 1.732962316266 1.0128949378199
375	288614 105 2076 5921 1.000063188 1.000310388 3 2.009927514986 2.625030695 6.931904728611 16.206558074613
376	288719 182 2076 6304 1.000063188 1.000333396 7 1072 4288 18760 58321088
377	288901 320 2076 6717 1.000063188 1.000357956 14 0 0 0 0
378	289221 228 2088 6708 1.000065376 1.000357328 10 0 0 0 0
379	289449 196 2091 6708 1.000065376 1.000357328 7 250004 253220 1761284 443168234096
380	289645 174 2119 6349 1.000066756 1.00033562 7 536 536 3752 2011072
381	289819 228 2119 6349 1.000066756 1.00033562 7 5.3352e-05 0.000322216 0.00158828 4.3745623456e-07
[...]
372	60418543 174 1521491 1564468 1.101314932 1.104186612 5 0.0005264 0.00078176 0.00365344 2.7216917504e-06
373	60418717 195 1521491 1564468 1.101314932 1.104186612 5 0.000749839986 0.000781759984 0.003876879907 3.0068546714864e-06
374	60418912 177 1521491 1564468 1.101314932 1.104186612 5 1.0039e-08 3.1928782e-05 3.197837e-05 1.0194477483076e-09
375	60419089 130 1521491 1564468 1.101314932 1.104186612 5 1 1 5 5
265	60419219 1725 1521491 1566053 1.101314932 2.000009976 60 7504 7504 450240 3378600960
26	60420944 3325 1511408 1566078 1.10062722 2.000010648 120 7504 7504 900480 6757201920
25	60424269 3685 1511408 1566078 1.10062722 2.000010648 120 1219092 1257509 148472569 1.8371361639905e+14
267	60427954 1427 1521491 1556280 1.101314932 1.1036629 45 1226057 1249641 55703205 68954337182685
27	60429381 3685 1511408 1566078 1.10062722 2.000010648 120 1211588 1250005 147572089 1.8149209728542e+14
263	60433066 4261 1511408 1566078 1.10062722 2.000010648 134 1211052 1250004 164930600 2.0301577543651e+14
264	60437327 4261 1511408 1566078 1.10062722 2.000010648 134 1218553 1250002 165442448 2.042767683926e+14
268	60441588 3025 1521491 1566053 1.101314932 2.000009976 106 0 7504 697553 4934755329
377	60444613 3457 1511408 1566078 1.10062722 2.000010648 134 0 0 0 0
24	60448070 4778 1511408 1566078 1.10062722 2.000010648 193 0 0 0 0
386	60452848 2091 1511872 1566111 1.10066786 2.00001132 68 965336 1001248 66863856 65754220987264
382	60454939 176 1522682 1564711 1.101393108 1.104201956 5 0.000463568 0.00078176 0.003590608 2.659490081024e-06
383	60455115 195 1522682 1564711 1.101393108 1.104201956 5 0.000741985986 0.000781759984 0.003869025907 2.9951378703023e-06
384	60455310 178 1522682 1564711 1.101393108 1.104201956 5 1.0035e-08 3.9782779e-05 3.983235e-05 1.5826701328404e-09
385	60455488 130 1522682 1564711 1.101393108 1.104201956 5 1 1 5 5
278	60455618 1952 1511872 1566111 1.10066786 2.00001132 68 7504 7504 510272 3829081088
30	60457570 3549 1511872 1566131 1.10066786 2.000011992 128 7504 7504 960512 7207682048
29	60461119 3933 1511872 1566131 1.10066786 2.000011992 128 1218556 1257509 158221017 1.9559264620014e+14
280	60465052 1683 1511872 1557354 1.10066786 1.103741076 53 1221769 1249641 65492365 80932805937317
31	60466735 3933 1511872 1566131 1.10066786 2.000011992 128 1211052 1250005 157260505 1.9322527285905e+14
276	60470668 4512 1511872 1566131 1.10066786 2.000011992 142 1211052 1250004 174619016 2.1474895101014e+14
277	60475180 4512 1511872 1566131 1.10066786 2.000011992 142 1214801 1250002 175175864 2.1611920383767e+14
281	60479692 3484 1511872 1566111 1.10066786 2.00001132 122 0 7504 813329 5773659649
387	60483176 3660 1511872 1566131 1.10066786 2.000011992 142 0 0 0 0
28	60486836 4978 1511872 1566131 1.10066786 2.000011992 201 0 0 0 0
396	60491814 2283 1512170 1566159 1.100689524 2.000012664 74 962120 1001248 72644616 71323757044544
392	60494097 209 1512170 1564852 1.100689524 1.1042173 6 0.000400736 0.00078176 0.004309536 3.216332829696e-06
393	60494306 231 1512170 1564852 1.100689524 1.1042173 6 0.000734131987 0.000781759985 0.004642931886 3.594693104421e-06
394	60494537 209 1512170 1564852 1.100689524 1.1042173 6 1.003e-08 4.7636774e-05 4.7703414e-05 2.269263156583e-09
395	60494746 154 1512170 1564852 1.100689524 1.1042173 6 1 1 6 6
291	60494900 2132 1512170 1566159 1.100689524 2.000012664 74 7504 7504 555296 4166941184
34	60497032 3708 1512170 1566179 1.100689524 2.000013336 134 7504 7504 1005536 7545542144
33	60500740 4110 1512170 1566179 1.100689524 2.000013336 134 1218556 1257509 165532353 2.0450191855095e+14
293	60504850 1879 1512170 1558487 1.100689524 1.103819252 59 1218553 1249641 72811723 89861644553691
35	60506729 4110 1512170 1566179 1.100689524 2.000013336 134 1211052 1250005 164526817 2.0202515453927e+14
289	60510839 4697 1512170 1566179 1.100689524 2.000013336 148 1211052 1250004 181885328 2.2354883269037e+14
290	60515536 4697 1512170 1566179 1.100689524 2.000013336 148 1211585 1250002 182453414 2.249463311991e+14
294	60520233 3842 1512170 1566159 1.100689524 2.000012664 134 0 7504 900161 6402837889
397	60524075 3809 1512170 1566179 1.100689524 2.000013336 148 0 0 0 0
32	60527884 5106 1512170 1566179 1.100689524 2.000013336 207 0 0 0 0
406	60532990 2279 1513343 1566207 1.1007677 2.000014008 74 962120 1001248 72644616 71323757044544
402	60535269 205 1513343 1564993 1.1007677 1.104232644 6 0.000337904 0.00078176 0.004246704 3.169922601216e-06
403	60535474 227 1513343 1564993 1.1007677 1.104232644 6 0.000726277987 0.000781759985 0.004635077886 3.5832230444853e-06
404	60535701 205 1513343 1564993 1.1007677 1.104232644 6 1.0026e-08 5.5490771e-05 5.555739e-05 3.0792265850631e-09
405	60535906 150 1513343 1564993 1.1007677 1.104232644 6 1 1 6 6
298	60536056 2128 1513343 1566207 1.1007677 2.000014008 74 7504 7504 555296 4166941184
38	60538184 3711 1513343 1566227 1.1007677 2.00001468 134 7504 7504 1005536 7545542144
37	60541895 4113 1513343 1566227 1.1007677 2.00001468 134 1218556 1257509 165532353 2.0450191855095e+14
300	60546008 1872 1513343 1559555 1.1007677 1.103897428 59 1218553 1249641 72811723 89861644553691
39	60547880 4113 1513343 1566227 1.1007677 2.00001468 134 1211052 1250005 164526817 2.0202515453927e+14
296	60551993 4703 1513343 1566227 1.1007677 2.00001468 148 1211052 1250004 181885328 2.2354883269037e+14
297	60556696 4703 1513343 1566227 1.1007677 2.00001468 148 1211585 1250002 182453414 2.249463311991e+14
301	60561399 3831 1513343 1566207 1.1007677 2.000014008 134 0 7504 900161 6402837889
407	60565230 3815 1513343 1566227 1.1007677 2.00001468 148 0 0 0 0
36	60569045 5120 1513343 1566227 1.1007677 2.00001468 207 0 0 0 0
419	60574165 2283 1514571 1566255 1.100845876 2.000015352 74 962120 1001248 72644616 71323757044544
415	60576448 211 1514571 1565134 1.100845876 1.104247988 6 0.000275072 0.00078176 0.004183872 3.131408093184e-06
416	60576659 233 1514571 1565134 1.100845876 1.104247988 6 0.000718423987 0.000781759985 0.004627223886 3.5718763551815e-06
417	60576892 213 1514571 1565134 1.100845876 1.104247988 6 1.0024e-08 6.3344769e-05 6.3411368e-05 4.0125606779839e-09
418	60577105 156 1514571 1565134 1.100845876 1.104247988 6 1 1 6 6
305	60577261 2132 1514571 1566255 1.100845876 2.000015352 74 7504 7504 555296 4166941184
42	60579393 3713 1514571 1566273 1.100845876 2.000016024 134 7504 7504 1005536 7545542144
41	60583106 4115 1514571 1566273 1.100845876 2.000016024 134 1218556 1257509 165532353 2.0450191855095e+14
307	60587221 1877 1514571 1560785 1.100845876 1.103975604 59 1218553 1249641 72811723 89861644553691
43	60589098 4115 1514571 1566273 1.100845876 2.000016024 134 1211052 1250005 164526817 2.0202515453927e+14
303	60593213 4704 1514571 1566273 1.100845876 2.000016024 148 1211052 1250004 181885328 2.2354883269037e+14
304	60597917 4704 1514571 1566273 1.100845876 2.000016024 148 1211585 1250002 182453414 2.249463311991e+14
308	60602621 3840 1514571 1566255 1.100845876 2.000015352 134 0 7504 900161 6402837889
420	60606461 3816 1514571 1566273 1.100845876 2.000016024 148 0 0 0 0
40	60610277 5118 1514571 1566273 1.100845876 2.000016024 207 0 0 0 0
0	60615395 57380 1511330 1565997 1.10062192 2.000008772 2354 0 25 24997 329337
1	60672775 61358 1511390 1566009 1.100625456 2.000009148 2583 0 1 1291 1291
2	60734133 34288 1511332 1564186 1.100622296 1.104174728 1444 0 6 4190 17266
3	60768421 67823 1511332 1566299 1.100622296 2.000017652 2855 0 1 1427 1427
54	60836244 2764 1515708 1565673 1.100924052 2.000003928 106 40 576 28184 14855744
55	60839008 2759 1516700 1565760 1.10099954 2.000005272 106 40 576 28184 14855744
56	60841767 2771 1516716 1565853 1.101000212 2.000006616 106 40 576 28184 14855744
57	60844538 2767 1518089 1565940 1.101083764 2.00000796 106 40 576 28184 14855744
58	60847305 2758 1520314 1566022 1.101236756 2.000009304 106 40 576 28184 14855744
59	60850063 3130 1511411 1566081 1.10062722 2.000010648 120 40 576 28744 14878144
60	60853193 3346 1511874 1566134 1.10066786 2.000011992 128 40 576 33352 17532352
61	60856539 3499 1512172 1566182 1.100689524 2.000013336 134 40 576 36808 19523008
62	60860038 3502 1513345 1566230 1.1007677 2.00001468 134 40 576 36808 19523008
63	60863540 3504 1514573 1566276 1.100845876 2.000016024 134 40 576 36808 19523008
64	60867044 2764 1515709 1565674 1.100924052 2.000003928 106 64 594 30458 15949364
65	60869808 2759 1516701 1565761 1.10099954 2.000005272 106 64 594 30458 15949364
66	60872567 2771 1516717 1565854 1.101000212 2.000006616 106 64 594 30458 15949364
67	60875338 2767 1518090 1565941 1.101083764 2.00000796 106 64 594 30458 15949364
68	60878105 2758 1520315 1566023 1.101236756 2.000009304 106 64 594 30458 15949364
69	60880863 3130 1511412 1566082 1.10062722 2.000010648 120 64 594 31354 16006708
70	60883993 3346 1511875 1566135 1.10066786 2.000011992 128 64 594 36106 18829396
71	60887339 3499 1512173 1566183 1.100689524 2.000013336 134 64 594 39670 20946412
72	60890838 3502 1513346 1566231 1.1007677 2.00001468 134 64 594 39670 20946412
73	60894340 3504 1514574 1566277 1.100845876 2.000016024 134 64 594 39670 20946412
74	60897844 2776 1515865 1565704 1.100928868 2.000004504 106 64 594 30458 15949364
75	60900620 2779 1516859 1565797 1.101004356 2.000005848 106 64 594 30458 15949364
76	60903399 2766 1516887 1565884 1.101005028 2.000007192 106 64 594 30458 15949364
77	60906165 2771 1518266 1565972 1.10108858 2.000008536 106 64 594 30458 15949364
78	60908936 2777 1520471 1566042 1.101241572 2.00000988 106 64 594 30458 15949364
79	60911713 3248 1511384 1566101 1.100625316 2.000011224 124 64 594 33730 17418052
80	60914961 3449 1511396 1566149 1.100625988 2.000012568 132 64 594 38482 20240740
81	60918410 3514 1512346 1566197 1.10069434 2.000013912 134 64 594 39670 20946412
82	60921924 3507 1513519 1566245 1.100772516 2.000015256 134 64 594 39670 20946412
83	60925431 3506 1514847 1566285 1.100850692 2.0000166 134 64 594 39670 20946412
84	60928937 2781 1515867 1565706 1.100928918 2.000004554 106 64 594 30458 15949364
85	60931718 2781 1515867 1565706 1.100928918 2.000004554 106 64 594 30458 15949364
86	60934499 2783 1516861 1565799 1.101004406 2.000005898 106 64 594 30458 15949364
87	60937282 2783 1516861 1565799 1.101004406 2.000005898 106 64 594 30458 15949364
88	60940065 2772 1516889 1565886 1.101005078 2.000007242 106 64 594 30458 15949364
89	60942837 2772 1516889 1565886 1.101005078 2.000007242 106 64 594 30458 15949364
90	60945609 2777 1518268 1565974 1.10108863 2.000008586 106 64 594 30458 15949364
91	60948386 2777 1518268 1565974 1.10108863 2.000008586 106 64 594 30458 15949364
92	60951163 2782 1520473 1566044 1.101241622 2.00000993 106 64 594 30458 15949364
93	60953945 2782 1520473 1566044 1.101241622 2.00000993 106 64 594 30458 15949364
94	60956727 3251 1511385 1566103 1.100625366 2.000011274 124 64 594 33730 17418052
95	60959978 3251 1511385 1566103 1.100625366 2.000011274 124 64 594 33730 17418052
96	60963229 3456 1511397 1566151 1.100626038 2.000012618 132 64 594 38482 20240740
97	60966685 3456 1511397 1566151 1.100626038 2.000012618 132 64 594 38482 20240740
98	60970141 3520 1512348 1566199 1.10069439 2.000013962 134 64 594 39670 20946412
99	60973661 3520 1512348 1566199 1.10069439 2.000013962 134 64 594 39670 20946412
100	60977181 3648 1513521 1566247 1.100772566 2.000015306 134 64 594 39670 20946412
101	60980829 3648 1513521 1566247 1.100772566 2.000015306 134 64 594 39670 20946412
102	60984477 3648 1514849 1566286 1.100850742 2.00001665 134 64 594 39670 20946412
103	60988125 3648 1514849 1566286 1.100850742 2.00001665 134 64 594 39670 20946412
104	60991773 32338 1511387 1566288 1.100625366 2.00001665 1188 64 594 343512 180244848
105	61024111 3274 1516689 1565730 1.100998914 2.000004646 120 64 594 38774 20889068
106	61027385 3284 1516705 1565817 1.100999586 2.00000599 120 64 594 38774 20889068
107	61030669 3269 1518078 1565910 1.101083138 2.000007334 120 64 594 38774 20889068
108	61033938 3275 1520296 1565992 1.10123613 2.000008678 120 64 594 38774 20889068
109	61037213 3667 1511341 1566062 1.100622354 2.000010022 134 64 594 47090 25828772
110	61040880 3876 1511853 1566115 1.100667234 2.000011366 142 64 594 47602 25861540
111	61044756 4037 1512142 1566163 1.100688898 2.00001271 148 64 594 47986 25886116
112	61048793 4042 1513315 1566211 1.100767074 2.000014054 148 64 594 47986 25886116
113	61052835 4040 1514531 1566259 1.10084525 2.000015398 148 64 594 47986 25886116
114	61056875 3273 1515685 1565638 1.100923426 2.000003302 120 64 594 38774 20889068
115	61060148 38761 1511343 1566291 1.100622422 2.000017226 1423 64 594 421092 222358728
116	61098909 38693 1511345 1566292 1.100622472 2.000017276 1423 64 594 421092 222358728
117	61137602 38693 1511345 1566292 1.100622472 2.000017276 1423 64 594 421092 222358728
118	61176295 38693 1511346 1566293 1.100622472 2.000017276 1423 46 576 395478 207660468
120	61214988 35213 1511393 1566011 1.100625456 2.000009148 1292 40 576 396176 213643136
121	61250201 35213 1511394 1566012 1.100625456 2.000009148 1292 64 594 423308 228796952
122	61285414 3274 1515701 1565658 1.100924002 2.000003878 120 64 594 38774 20889068
123	61288688 3269 1516693 1565751 1.10099949 2.000005222 120 64 594 38774 20889068
124	61291957 3278 1516709 1565844 1.101000162 2.000006566 120 64 594 38774 20889068
125	61295235 3276 1518082 1565931 1.101083714 2.00000791 120 64 594 38774 20889068
126	61298511 3269 1520307 1566013 1.101236706 2.000009254 120 64 594 38774 20889068
127	61301780 3669 1511403 1566072 1.10062717 2.000010598 134 64 594 47090 25828772
128	61305449 3881 1511868 1566125 1.10066781 2.000011942 142 64 594 47602 25861540
129	61309330 4037 1512165 1566173 1.100689474 2.000013286 148 64 594 47986 25886116
130	61313367 4042 1513338 1566221 1.10076765 2.00001463 148 64 594 47986 25886116
131	61317409 4042 1514555 1566268 1.100845826 2.000015974 148 64 594 47986 25886116
132	61321451 3268 1515703 1565667 1.100924052 2.000003928 120 64 594 38774 20889068
133	61324719 3268 1515703 1565667 1.100924052 2.000003928 120 64 594 38774 20889068
134	61327987 3262 1516695 1565754 1.10099954 2.000005272 120 64 594 38774 20889068
135	61331249 3262 1516695 1565754 1.10099954 2.000005272 120 64 594 38774 20889068
136	61334511 3275 1516711 1565847 1.101000212 2.000006616 120 64 594 38774 20889068
137	61337786 3275 1516711 1565847 1.101000212 2.000006616 120 64 594 38774 20889068
138	61341061 3272 1518084 1565934 1.101083764 2.00000796 120 64 594 38774 20889068
139	61344333 3272 1518084 1565934 1.101083764 2.00000796 120 64 594 38774 20889068
140	61347605 3263 1520309 1566016 1.101236756 2.000009304 120 64 594 38774 20889068
141	61350868 3263 1520309 1566016 1.101236756 2.000009304 120 64 594 38774 20889068
142	61354131 3664 1511405 1566075 1.10062722 2.000010648 134 64 594 47090 25828772
143	61357795 3664 1511405 1566075 1.10062722 2.000010648 134 64 594 47090 25828772
144	61361459 3875 1511869 1566128 1.10066786 2.000011992 142 64 594 47602 25861540
145	61365334 3875 1511869 1566128 1.10066786 2.000011992 142 64 594 47602 25861540
146	61369209 4030 1512167 1566176 1.100689524 2.000013336 148 64 594 47986 25886116
147	61373239 4030 1512167 1566176 1.100689524 2.000013336 148 64 594 47986 25886116
148	61377269 4036 1513340 1566224 1.1007677 2.00001468 148 64 594 47986 25886116
149	61381305 4036 1513340 1566224 1.1007677 2.00001468 148 64 594 47986 25886116
150	61385341 4037 1514568 1566270 1.100845876 2.000016024 148 64 594 47986 25886116
151	61389378 4037 1514568 1566270 1.100845876 2.000016024 148 64 594 47986 25886116
152	61393415 3268 1515704 1565668 1.100924052 2.000003928 120 46 576 36614 19532084
153	61396683 3262 1516696 1565755 1.10099954 2.000005272 120 46 576 36614 19532084
154	61399945 3275 1516712 1565848 1.101000212 2.000006616 120 46 576 36614 19532084
155	61403220 3272 1518085 1565935 1.101083764 2.00000796 120 46 576 36614 19532084
156	61406492 3263 1520310 1566017 1.101236756 2.000009304 120 46 576 36614 19532084
157	61409755 3664 1511406 1566076 1.10062722 2.000010648 134 46 576 44678 24176948
158	61413419 3875 1511870 1566129 1.10066786 2.000011992 142 46 576 45046 24193876
159	61417294 4030 1512168 1566177 1.100689524 2.000013336 148 46 576 45322 24206572
160	61421324 4036 1513341 1566225 1.1007677 2.00001468 148 46 576 45322 24206572
161	61425360 4037 1514569 1566271 1.100845876 2.000016024 148 46 576 45322 24206572
162	61429397 35977 1511338 1566250 1.100622304 2.000015348 1320 64 594 432520 233794000
163	61465374 36037 1511339 1566256 1.100622354 2.000015398 1320 64 594 432520 233794000
164	61501411 36037 1511339 1566256 1.100622354 2.000015398 1320 64 594 432520 233794000
165	61537448 38693 1511348 1566295 1.100622472 2.000017276 1423 40 576 390696 207249216
166	61576141 42322 1511332 1566295 1.100622296 2.000017276 1427 0 3.992e-06 0.001944528 6.081756544e-09
167	61618463 38805 1511334 1566296 1.100622296 2.000017276 1427 40 576 390856 207255616
168	61657268 38805 1511334 1566296 1.100622296 2.000017276 1427 47 583 400845 212797523
169	61696073 38835 1511331 1566298 1.100622296 2.000017652 1428 47 583 400892 212799732
170	61734908 38835 1511331 1566298 1.100622296 2.000017652 1428 40 576 390896 207257216
178	61773743 35129 1511330 1565930 1.10062192 2.000007676 1289 40 576 394448 212647808
179	61808872 43415 1511390 1565997 1.100625456 2.000008772 1291 0 7.416e-05 0.03640428 1.444669719232e-06
180	61852287 35185 1511392 1565999 1.100625456 2.000008772 1291 40 576 395600 213311360
181	61887472 35185 1511392 1565999 1.100625456 2.000008772 1291 47 583 404637 218913019
182	61922657 35213 1511389 1566008 1.100625456 2.000009148 1292 47 583 405220 219252908
183	61957870 35213 1511389 1566008 1.100625456 2.000009148 1292 40 576 396176 213643136
316	61993083 17373 1511462 1564019 1.100632048 1.104170216 626 360 536 333776 178270336
317	62010456 22229 1511462 1564019 1.100632048 1.104170216 626 0.100616628 0.104153452 64.078330704 6.5597970429191
318	62032685 17373 1511462 1564019 1.100632048 1.104170216 626 360 536 333776 178270336
338	62050058 1641 1517220 1563648 1.101022132 1.104146164 59 360 536 31448 16792768
339	62051699 2098 1517220 1563648 1.101022132 1.104146164 59 0.101011416 0.104135448 6.036489528 0.61766690801453
348	62053797 1633 1518541 1563891 1.101101652 1.104161508 59 360 536 31448 16792768
349	62055430 2094 1518541 1563891 1.101101652 1.104161508 59 0.101090264 0.10415012 6.040986888 0.61858683688515
360	62057524 1642 1519564 1564195 1.101174452 1.104174836 59 360 536 31448 16792768
361	62059166 2103 1519564 1564195 1.101174452 1.104174836 59 0.101162392 0.104162776 6.045085656 0.61942584303787
370	62061269 1641 1520712 1564581 1.101252628 1.10419018 59 360 536 31448 16792768
371	62062910 2102 1520712 1564581 1.101252628 1.10419018 59 0.101239896 0.104177448 6.049426632 0.62031508529735
380	62065012 1631 1521963 1564769 1.101330804 1.104205524 59 360 536 31448 16792768
381	62066643 2093 1521963 1564769 1.101330804 1.104205524 59 0.1013174 0.10419212 6.053810872 0.62121385928469
390	62068736 2032 1511409 1564910 1.10062722 1.104220868 73 360 536 38952 20814912
391	62070768 2592 1511409 1564910 1.10062722 1.104220868 73 0.100613144 0.104206792 7.467230176 0.76392615672243
400	62073360 2032 1512582 1565051 1.100705396 1.104236212 73 360 536 38952 20814912
401	62075392 2603 1512582 1565051 1.100705396 1.104236212 73 0.100690648 0.104221464 7.472699472 0.76504477463524
408	62077995 2019 1513755 1565192 1.100783572 1.104251556 73 360 536 38952 20814912
409	62080014 2578 1513755 1565192 1.100783572 1.104251556 73 0.100768152 0.104236136 7.478168768 0.76616423480146
421	62082592 2030 1514972 1565296 1.100861748 1.1042669 73 360 536 38952 20814912
422	62084622 2601 1514972 1565296 1.100861748 1.1042669 73 0.100845656 0.104250808 7.483638064 0.76728453722108
423	62087223 2026 1515956 1565397 1.10093858 1.104280228 73 360 536 38952 20814912
424	62089249 2592 1515956 1565397 1.10093858 1.104280228 73 0.100921816 0.104263464 7.488977544 0.76837901336643

