version 2
run General-0-20181030-02:57:55-51511
attr configname General
attr datetime 20181030-02:57:55
attr experiment General
attr inifile omnetpp.ini
attr iterationvars ""
attr iterationvarsf ""
attr measurement ""
attr network WiredNetworkExample
attr processid 51511
attr repetition 0
attr replication #0
attr resultdir results
attr runnumber 0
attr seedset 0
param *.numClients 10
param *.client[*].numApps 1
param *.client[*].app[0].typename "\"TcpSessionApp\""
param *.client[*].app[0].connectAddress "\"server\""
param *.client[*].app[0].connectPort 1000
param *.client[*].app[0].sendBytes 1MB
param *.server.numApps 1
param *.server.app[0].typename "\"TcpEchoApp\""
param *.server.app[0].localPort 1000

scalar WiredNetworkExample.server.lo[0].lo rcvdPkFromHl:count 0
attr interpolationmode none
attr source packetReceivedFromUpper
attr title "packets received from higher layer, count"
scalar WiredNetworkExample.server.lo[0].lo rcvdPkFromHl:sum(packetBytes) 0
attr interpolationmode none
attr source packetReceivedFromUpper
attr title "packets received from higher layer, sum(packetBytes)"
scalar WiredNetworkExample.server.lo[0].lo passedUpPk:count 0
attr interpolationmode none
attr source packetSentToUpper
attr title "packets passed to higher layer, count"
scalar WiredNetworkExample.server.lo[0].lo passedUpPk:sum(packetBytes) 0
attr interpolationmode none
attr source packetSentToUpper
attr title "packets passed to higher layer, sum(packetBytes)"
statistic WiredNetworkExample.server.ppp[0].queue queueingTime:histogram
field count 37350
field mean 2.9221787630521e-05
field stddev 1.7997356810313e-05
field min 0
field max 8.104e-05
field sum 1.091433768
field sqrsum 4.3991168104513e-05
attr interpolationmode none
attr title "queueing time, histogram"
bin	-inf	0
bin	0	3259
bin	1e-06	660
bin	2e-06	264
bin	3e-06	4
bin	4e-06	694
bin	5e-06	918
bin	6e-06	9
bin	7e-06	270
bin	8e-06	672
bin	9e-06	7
bin	1e-05	921
bin	1.1e-05	275
bin	1.2e-05	663
bin	1.3e-05	277
bin	1.4e-05	403
bin	1.5e-05	533
bin	1.6e-05	276
bin	1.7e-05	929
bin	1.8e-05	270
bin	1.9e-05	924
bin	2e-05	140
bin	2.1e-05	1063
bin	2.2e-05	796
bin	2.3e-05	271
bin	2.4e-05	530
bin	2.5e-05	1060
bin	2.6e-05	142
bin	2.7e-05	530
bin	2.8e-05	924
bin	2.9e-05	270
bin	3e-05	930
bin	3.1e-05	534
bin	3.2e-05	405
bin	3.3e-05	924
bin	3.4e-05	1057
bin	3.5e-05	1448
bin	3.6e-05	269
bin	3.7e-05	797
bin	3.8e-05	1450
bin	3.9e-05	1058
bin	4e-05	531
bin	4.1e-05	273
bin	4.2e-05	1054
bin	4.3e-05	925
bin	4.4e-05	791
bin	4.5e-05	268
bin	4.6e-05	399
bin	4.7e-05	269
bin	4.8e-05	1051
bin	4.9e-05	139
bin	5e-05	4
bin	5.1e-05	528
bin	5.2e-05	920
bin	5.3e-05	137
bin	5.4e-05	139
bin	5.5e-05	397
bin	5.6e-05	395
bin	5.7e-05	402
bin	5.8e-05	139
bin	5.9e-05	394
bin	6e-05	136
bin	6.1e-05	270
bin	6.2e-05	3
bin	6.3e-05	134
bin	6.4e-05	137
bin	6.5e-05	134
bin	6.6e-05	134
bin	6.7e-05	5
bin	6.8e-05	4
bin	6.9e-05	134
bin	7e-05	133
bin	7.1e-05	3
bin	7.2e-05	4
bin	7.3e-05	0
bin	7.4e-05	133
bin	7.5e-05	1
bin	7.6e-05	2
bin	7.7e-05	0
bin	7.8e-05	0
bin	7.9e-05	1
bin	8e-05	0
bin	8.1e-05	1
bin	8.2e-05	0
scalar WiredNetworkExample.server.ppp[0].queue queueLength:max 30
attr interpolationmode sample-hold
attr title "queue length, max"
scalar WiredNetworkExample.server.ppp[0].queue queueLength:timeavg 0.0045100565939292
attr interpolationmode sample-hold
attr title "queue length, timeavg"
scalar WiredNetworkExample.server.ppp[0].queue packetReceived:count 37350
attr interpolationmode none
attr title "received packets, count"
scalar WiredNetworkExample.server.ppp[0].queue packetReceived:sum(packetBytes) 11494040
attr interpolationmode none
attr title "received packets, sum(packetBytes)"
scalar WiredNetworkExample.server.ppp[0].queue dropPk:count 0
attr interpolationmode none
attr source packetDropped
attr title "dropped packets, count"
scalar WiredNetworkExample.server.ppp[0].queue dropPk:sum(packetBytes) 0
attr interpolationmode none
attr source packetDropped
attr title "dropped packets, sum(packetBytes)"
scalar WiredNetworkExample.server.ppp[0].ppp transmissionState:timeavg 0.00038861121393766
attr interpolationmode sample-hold
attr source transmissionStateChanged
attr title "tx state, timeavg"
scalar WiredNetworkExample.server.ppp[0].ppp rxPkOk:count 37360
attr interpolationmode none
attr source rxPkOk
attr title "packets received OK, count"
scalar WiredNetworkExample.server.ppp[0].ppp rxPkOk:sum(packetBytes) 11755960
attr interpolationmode none
attr source rxPkOk
attr title "packets received OK, sum(packetBytes)"
scalar WiredNetworkExample.server.ppp[0].ppp txPk:count 37350
attr interpolationmode none
attr source packetSentToLower
attr title "packets transmitted, count"
scalar WiredNetworkExample.server.ppp[0].ppp txPk:sum(packetBytes) 11755490
attr interpolationmode none
attr source packetSentToLower
attr title "packets transmitted, sum(packetBytes)"
scalar WiredNetworkExample.server.ppp[0].ppp rcvdPkFromHl:count 37350
attr interpolationmode none
attr source packetReceivedFromUpper
attr title "packets received from higher layer, count"
scalar WiredNetworkExample.server.ppp[0].ppp rcvdPkFromHl:sum(packetBytes) 11494040
attr interpolationmode none
attr source packetReceivedFromUpper
attr title "packets received from higher layer, sum(packetBytes)"
scalar WiredNetworkExample.server.ppp[0].ppp passedUpPk:count 37360
attr interpolationmode none
attr source packetSentToUpper
attr title "packets passed to higher layer, count"
scalar WiredNetworkExample.server.ppp[0].ppp passedUpPk:sum(packetBytes) 11494440
attr interpolationmode none
attr source packetSentToUpper
attr title "packets passed to higher layer, sum(packetBytes)"
scalar WiredNetworkExample.server.ppp[0].ppp packetDropIncorrectlyReceived:count 0
attr interpolationmode none
attr source packetDropReasonIsIncorrectlyReceived(packetDropped)
attr title "packet drop: incorrectly received, count"
scalar WiredNetworkExample.server.ppp[0].ppp packetDropIncorrectlyReceived:sum(packetBytes) 0
attr interpolationmode none
attr source packetDropReasonIsIncorrectlyReceived(packetDropped)
attr title "packet drop: incorrectly received, sum(packetBytes)"
scalar WiredNetworkExample.server.ppp[0].ppp packetDropInterfaceDown:count 0
attr interpolationmode none
attr source packetDropReasonIsInterfaceDown(packetDropped)
attr title "packet drop: interface down, count"
scalar WiredNetworkExample.server.ppp[0].ppp packetDropInterfaceDown:sum(packetBytes) 0
attr interpolationmode none
attr source packetDropReasonIsInterfaceDown(packetDropped)
attr title "packet drop: interface down, sum(packetBytes)"
scalar WiredNetworkExample.server.ipv4.ip packetDropAddressResolutionFailed:count 0
attr interpolationmode none
attr source packetDropReasonIsAddressResolutionFailed(packetDropped)
attr title "packet drop: address resolution failed, count"
scalar WiredNetworkExample.server.ipv4.ip packetDropAddressResolutionFailed:sum(packetBytes) 0
attr interpolationmode none
attr source packetDropReasonIsAddressResolutionFailed(packetDropped)
attr title "packet drop: address resolution failed, sum(packetBytes)"
scalar WiredNetworkExample.server.ipv4.ip packetDropHopLimitReached:count 0
attr interpolationmode none
attr source packetDropReasonIsHopLimitReached(packetDropped)
attr title "packet drop: hop limit reached, count"
scalar WiredNetworkExample.server.ipv4.ip packetDropHopLimitReached:sum(packetBytes) 0
attr interpolationmode none
attr source packetDropReasonIsHopLimitReached(packetDropped)
attr title "packet drop: hop limit reached, sum(packetBytes)"
scalar WiredNetworkExample.server.ipv4.ip packetDropForwardingDisabled:count 0
attr interpolationmode none
attr source packetDropReasonIsForwardingDisabled(packetDropped)
attr title "packet drop: forwarding disabled, count"
scalar WiredNetworkExample.server.ipv4.ip packetDropForwardingDisabled:sum(packetBytes) 0
attr interpolationmode none
attr source packetDropReasonIsForwardingDisabled(packetDropped)
attr title "packet drop: forwarding disabled, sum(packetBytes)"
scalar WiredNetworkExample.server.ipv4.ip packetDropNoInterfaceFound:count 0
attr interpolationmode none
attr source packetDropReasonIsNoInterfaceFound(packetDropped)
attr title "packet drop: no interface found, count"
scalar WiredNetworkExample.server.ipv4.ip packetDropNoInterfaceFound:sum(packetBytes) 0
attr interpolationmode none
attr source packetDropReasonIsNoInterfaceFound(packetDropped)
attr title "packet drop: no interface found, sum(packetBytes)"
scalar WiredNetworkExample.server.ipv4.ip packetDropNoRouteFound:count 0
attr interpolationmode none
attr source packetDropReasonIsNoRouteFound(packetDropped)
attr title "packet drop: no route found, count"
scalar WiredNetworkExample.server.ipv4.ip packetDropNoRouteFound:sum(packetBytes) 0
attr interpolationmode none
attr source packetDropReasonIsNoRouteFound(packetDropped)
attr title "packet drop: no route found, sum(packetBytes)"
scalar WiredNetworkExample.server.ipv4.ip packetDropUndefined:count 0
attr interpolationmode none
attr source packetDropReasonIsUndefined(packetDropped)
attr title "packet drop: undefined, count"
scalar WiredNetworkExample.server.ipv4.ip packetDropUndefined:sum(packetBytes) 0
attr interpolationmode none
attr source packetDropReasonIsUndefined(packetDropped)
attr title "packet drop: undefined, sum(packetBytes)"
scalar WiredNetworkExample.server.ipv4.arp arpResolutionFailed:count 0
attr title "ARP failed resolutions, count"
scalar WiredNetworkExample.server.ipv4.arp arpResolutionCompleted:count 0
attr title "ARP completed resolutions, count"
scalar WiredNetworkExample.server.ipv4.arp arpResolutionInitiated:count 0
attr title "ARP initiated resolutions, count"
scalar WiredNetworkExample.server.ipv4.arp arpReplySent:count 0
attr source arpReplySent
attr title "ARP replies sent, count"
scalar WiredNetworkExample.server.ipv4.arp arpReplySent:sum(packetBytes) 0
attr source arpReplySent
attr title "ARP replies sent, sum(packetBytes)"
scalar WiredNetworkExample.server.ipv4.arp arpRequestSent:count 0
attr source arpRequestSent
attr title "ARP request sent, count"
scalar WiredNetworkExample.server.ipv4.arp arpRequestSent:sum(packetBytes) 0
attr source arpRequestSent
attr title "ARP request sent, sum(packetBytes)"
scalar WiredNetworkExample.server.udp packetReceived:count 0
attr interpolationmode none
attr source packetReceived
attr title "packets received, count"
scalar WiredNetworkExample.server.udp packetReceived:sum(packetBytes) 0
attr interpolationmode none
attr source packetReceived
attr title "packets received, sum(packetBytes)"
scalar WiredNetworkExample.server.udp packetSent:count 0
attr interpolationmode none
attr source packetSent
attr title "packets sent, count"
scalar WiredNetworkExample.server.udp packetSent:sum(packetBytes) 0
attr interpolationmode none
attr source packetSent
attr title "packets sent, sum(packetBytes)"
scalar WiredNetworkExample.server.udp passedUpPk:count 0
attr interpolationmode none
attr source packetSentToUpper
attr title "packets passed up, count"
scalar WiredNetworkExample.server.udp droppedPkWrongPort:count 0
attr interpolationmode none
attr source packetDropReasonIsNoPortFound(packetDropped)
attr title "packets dropped (wrong port), count"
scalar WiredNetworkExample.server.udp droppedPkBadChecksum:count 0
attr interpolationmode none
attr source packetDropReasonIsIncorrectlyReceived(packetDropped)
attr title "packets dropped (checksum error), count"
scalar WiredNetworkExample.server.app[0] bytesRcvd 10000000
scalar WiredNetworkExample.server.app[0] bytesSent 10000000
scalar WiredNetworkExample.server.app[0] packetReceived:count 18660
attr interpolationmode none
attr source packetReceived
attr title "packets received, count"
scalar WiredNetworkExample.server.app[0] packetReceived:sum(packetBytes) 10000000
attr interpolationmode none
attr source packetReceived
attr title "packets received, sum(packetBytes)"
statistic WiredNetworkExample.server.app[0] endToEndDelay:histogram
field count 18660
field mean 0.052010361873097
field stddev 0.030078745924484
field min 1.8932e-05
field max 0.104153452
field sum 970.513352552
field sqrsum 67.358125584177
attr interpolationmode none
attr source dataAge(packetReceived)
attr title "end-to-end delay, histogram"
attr unit s
bin	-inf	0
bin	0	302
bin	0.0016	287
bin	0.0032	287
bin	0.0048	286
bin	0.0064	288
bin	0.008	285
bin	0.0096	286
bin	0.0112	287
bin	0.0128	286
bin	0.0144	287
bin	0.016	286
bin	0.0176	287
bin	0.0192	287
bin	0.0208	287
bin	0.0224	286
bin	0.024	287
bin	0.0256	287
bin	0.0272	286
bin	0.0288	287
bin	0.0304	285
bin	0.032	288
bin	0.0336	285
bin	0.0352	287
bin	0.0368	287
bin	0.0384	286
bin	0.04	287
bin	0.0416	287
bin	0.0432	286
bin	0.0448	286
bin	0.0464	287
bin	0.048	286
bin	0.0496	288
bin	0.0512	285
bin	0.0528	288
bin	0.0544	285
bin	0.056	288
bin	0.0576	285
bin	0.0592	288
bin	0.0608	285
bin	0.0624	288
bin	0.064	286
bin	0.0656	287
bin	0.0672	284
bin	0.0688	288
bin	0.0704	287
bin	0.072	286
bin	0.0736	287
bin	0.0752	288
bin	0.0768	285
bin	0.0784	286
bin	0.08	287
bin	0.0816	286
bin	0.0832	287
bin	0.0848	286
bin	0.0864	288
bin	0.088	285
bin	0.0896	288
bin	0.0912	286
bin	0.0928	287
bin	0.0944	286
bin	0.096	287
bin	0.0976	287
bin	0.0992	285
bin	0.1008	287
bin	0.1024	285
bin	0.104	21
bin	0.1056	0
scalar WiredNetworkExample.server.app[0] packetSent:count 18660
attr interpolationmode none
attr source packetSent
attr title "packets sent, count"
scalar WiredNetworkExample.server.app[0] packetSent:sum(packetBytes) 10000000
attr interpolationmode none
attr source packetSent
attr title "packets sent, sum(packetBytes)"
scalar WiredNetworkExample.router.lo[0].lo rcvdPkFromHl:count 0
attr interpolationmode none
attr source packetReceivedFromUpper
attr title "packets received from higher layer, count"
scalar WiredNetworkExample.router.lo[0].lo rcvdPkFromHl:sum(packetBytes) 0
attr interpolationmode none
attr source packetReceivedFromUpper
attr title "packets received from higher layer, sum(packetBytes)"
scalar WiredNetworkExample.router.lo[0].lo passedUpPk:count 0
attr interpolationmode none
attr source packetSentToUpper
attr title "packets passed to higher layer, count"
scalar WiredNetworkExample.router.lo[0].lo passedUpPk:sum(packetBytes) 0
attr interpolationmode none
attr source packetSentToUpper
attr title "packets passed to higher layer, sum(packetBytes)"
statistic WiredNetworkExample.router.ppp[0].queue queueingTime:histogram
field count 37360
field mean 1.4173631691649e-06
field stddev 1.5951230479047e-06
field min 0
field max 3.992e-06
field sum 0.052952688
field sqrsum 1.7011008448001e-07
attr interpolationmode none
attr title "queueing time, histogram"
bin	-inf	0
bin	0	18755
bin	1e-07	269
bin	2e-07	1
bin	3e-07	0
bin	4e-07	269
bin	5e-07	1
bin	6e-07	0
bin	7e-07	269
bin	8e-07	1
bin	9e-07	1
bin	1e-06	269
bin	1.1e-06	10
bin	1.2e-06	0
bin	1.3e-06	1186
bin	1.4e-06	1
bin	1.5e-06	0
bin	1.6e-06	1186
bin	1.7e-06	1
bin	1.8e-06	0
bin	1.9e-06	1188
bin	2e-06	1
bin	2.1e-06	0
bin	2.2e-06	1188
bin	2.3e-06	1
bin	2.4e-06	0
bin	2.5e-06	1451
bin	2.6e-06	1
bin	2.7e-06	0
bin	2.8e-06	1457
bin	2.9e-06	1
bin	3e-06	0
bin	3.1e-06	1469
bin	3.2e-06	0
bin	3.3e-06	1462
bin	3.4e-06	8
bin	3.5e-06	0
bin	3.6e-06	3442
bin	3.7e-06	7
bin	3.8e-06	0
bin	3.9e-06	3465
bin	4e-06	0
bin	4.1e-06	0
bin	4.2e-06	0
bin	4.3e-06	0
bin	4.4e-06	0
bin	4.5e-06	0
bin	4.6e-06	0
bin	4.7e-06	0
bin	4.8e-06	0
bin	4.9e-06	0
bin	5e-06	0
scalar WiredNetworkExample.router.ppp[0].queue queueLength:max 6
attr interpolationmode sample-hold
attr title "queue length, max"
scalar WiredNetworkExample.router.ppp[0].queue queueLength:timeavg 0.00021881274584197
attr interpolationmode sample-hold
attr title "queue length, timeavg"
scalar WiredNetworkExample.router.ppp[0].queue packetReceived:count 37360
attr interpolationmode none
attr title "received packets, count"
scalar WiredNetworkExample.router.ppp[0].queue packetReceived:sum(packetBytes) 11494440
attr interpolationmode none
attr title "received packets, sum(packetBytes)"
scalar WiredNetworkExample.router.ppp[0].queue dropPk:count 0
attr interpolationmode none
attr source packetDropped
attr title "dropped packets, count"
scalar WiredNetworkExample.router.ppp[0].queue dropPk:sum(packetBytes) 0
attr interpolationmode none
attr source packetDropped
attr title "dropped packets, sum(packetBytes)"
scalar WiredNetworkExample.router.ppp[0].ppp transmissionState:timeavg 0.00038862675112671
attr interpolationmode sample-hold
attr source transmissionStateChanged
attr title "tx state, timeavg"
scalar WiredNetworkExample.router.ppp[0].ppp rxPkOk:count 37350
attr interpolationmode none
attr source rxPkOk
attr title "packets received OK, count"
scalar WiredNetworkExample.router.ppp[0].ppp rxPkOk:sum(packetBytes) 11755490
attr interpolationmode none
attr source rxPkOk
attr title "packets received OK, sum(packetBytes)"
scalar WiredNetworkExample.router.ppp[0].ppp txPk:count 37360
attr interpolationmode none
attr source packetSentToLower
attr title "packets transmitted, count"
scalar WiredNetworkExample.router.ppp[0].ppp txPk:sum(packetBytes) 11755960
attr interpolationmode none
attr source packetSentToLower
attr title "packets transmitted, sum(packetBytes)"
scalar WiredNetworkExample.router.ppp[0].ppp rcvdPkFromHl:count 37360
attr interpolationmode none
attr source packetReceivedFromUpper
attr title "packets received from higher layer, count"
scalar WiredNetworkExample.router.ppp[0].ppp rcvdPkFromHl:sum(packetBytes) 11494440
attr interpolationmode none
attr source packetReceivedFromUpper
attr title "packets received from higher layer, sum(packetBytes)"
scalar WiredNetworkExample.router.ppp[0].ppp passedUpPk:count 37350
attr interpolationmode none
attr source packetSentToUpper
attr title "packets passed to higher layer, count"
scalar WiredNetworkExample.router.ppp[0].ppp passedUpPk:sum(packetBytes) 11494040
attr interpolationmode none
attr source packetSentToUpper
attr title "packets passed to higher layer, sum(packetBytes)"
scalar WiredNetworkExample.router.ppp[0].ppp packetDropIncorrectlyReceived:count 0
attr interpolationmode none
attr source packetDropReasonIsIncorrectlyReceived(packetDropped)
attr title "packet drop: incorrectly received, count"
scalar WiredNetworkExample.router.ppp[0].ppp packetDropIncorrectlyReceived:sum(packetBytes) 0
attr interpolationmode none
attr source packetDropReasonIsIncorrectlyReceived(packetDropped)
attr title "packet drop: incorrectly received, sum(packetBytes)"
scalar WiredNetworkExample.router.ppp[0].ppp packetDropInterfaceDown:count 0
attr interpolationmode none
attr source packetDropReasonIsInterfaceDown(packetDropped)
attr title "packet drop: interface down, count"
scalar WiredNetworkExample.router.ppp[0].ppp packetDropInterfaceDown:sum(packetBytes) 0
attr interpolationmode none
attr source packetDropReasonIsInterfaceDown(packetDropped)
attr title "packet drop: interface down, sum(packetBytes)"
scalar WiredNetworkExample.router.eth[0].mac "simulated time" 242.000016024
scalar WiredNetworkExample.router.eth[0].mac full-duplex 1
scalar WiredNetworkExample.router.eth[0].mac "frames/sec sent" 154.38015506699
scalar WiredNetworkExample.router.eth[0].mac "frames/sec rcvd" 154.42147737831
scalar WiredNetworkExample.router.eth[0].mac "bits/sec sent" 405919.97312206
scalar WiredNetworkExample.router.eth[0].mac "bits/sec rcvd" 405941.13014545
scalar WiredNetworkExample.router.eth[0].mac "rx channel idle (%)" 100
scalar WiredNetworkExample.router.eth[0].mac "rx channel utilization (%)" 0
scalar WiredNetworkExample.router.eth[0].mac rxPausePkUnits:count 0
attr interpolationmode none
attr title "pause units received, count"
scalar WiredNetworkExample.router.eth[0].mac rxPausePkUnits:sum 0
attr interpolationmode none
attr title "pause units received, sum"
scalar WiredNetworkExample.router.eth[0].mac txPausePkUnits:count 0
attr interpolationmode none
attr title "pause units sent, count"
scalar WiredNetworkExample.router.eth[0].mac txPausePkUnits:sum 0
attr interpolationmode none
attr title "pause units sent, sum"
scalar WiredNetworkExample.router.eth[0].mac rxPkOk:count 37370
attr interpolationmode none
attr source rxPkOk
attr title "packets received OK, count"
scalar WiredNetworkExample.router.eth[0].mac rxPkOk:sum(packetBytes) 12279720
attr interpolationmode none
attr source rxPkOk
attr title "packets received OK, sum(packetBytes)"
scalar WiredNetworkExample.router.eth[0].mac txPk:count 37360
attr interpolationmode none
attr source packetSentToLower
attr title "packets transmitted, count"
scalar WiredNetworkExample.router.eth[0].mac txPk:sum(packetBytes) 12279080
attr interpolationmode none
attr source packetSentToLower
attr title "packets transmitted, sum(packetBytes)"
scalar WiredNetworkExample.router.eth[0].mac packetReceivedFromUpper:count 37360
attr interpolationmode none
attr source packetReceivedFromUpper
attr title "packet bytes from higher layer, count"
scalar WiredNetworkExample.router.eth[0].mac packetReceivedFromUpper:sum(packetBytes) 12279080
attr interpolationmode none
attr source packetReceivedFromUpper
attr title "packet bytes from higher layer, sum(packetBytes)"
scalar WiredNetworkExample.router.eth[0].mac passedUpPk:count 37370
attr interpolationmode none
attr source packetSentToUpper
attr title "packets passed to higher layer, count"
scalar WiredNetworkExample.router.eth[0].mac passedUpPk:sum(packetBytes) 12279720
attr interpolationmode none
attr source packetSentToUpper
attr title "packets passed to higher layer, sum(packetBytes)"
scalar WiredNetworkExample.router.eth[0].mac packetDropIncorrectlyReceived:count 0
attr interpolationmode none
attr source packetDropReasonIsIncorrectlyReceived(packetDropped)
attr title "packet drop: incorrectly received, count"
scalar WiredNetworkExample.router.eth[0].mac packetDropIncorrectlyReceived:sum(packetBytes) 0
attr interpolationmode none
attr source packetDropReasonIsIncorrectlyReceived(packetDropped)
attr title "packet drop: incorrectly received, sum(packetBytes)"
scalar WiredNetworkExample.router.eth[0].mac packetDropInterfaceDown:count 0
attr interpolationmode none
attr source packetDropReasonIsInterfaceDown(packetDropped)
attr title "packet drop: interface down, count"
scalar WiredNetworkExample.router.eth[0].mac packetDropInterfaceDown:sum(packetBytes) 0
attr interpolationmode none
attr source packetDropReasonIsInterfaceDown(packetDropped)
attr title "packet drop: interface down, sum(packetBytes)"
scalar WiredNetworkExample.router.eth[0].mac packetDropNotAddressedToUs:count 0
attr interpolationmode none
attr source packetDropReasonIsNotAddressedToUs(packetDropped)
attr title "packet drop: not addressed to us, count"
scalar WiredNetworkExample.router.eth[0].mac packetDropNotAddressedToUs:sum(packetBytes) 0
attr interpolationmode none
attr source packetDropReasonIsNotAddressedToUs(packetDropped)
attr title "packet drop: not addressed to us, sum(packetBytes)"
scalar WiredNetworkExample.router.eth[0].encap pauseSent:count 0
attr title "pause sent, count"
scalar WiredNetworkExample.router.eth[0].encap pauseSent:sum 0
attr title "pause sent, sum"
scalar WiredNetworkExample.router.eth[0].encap decapPk:count 37370
attr interpolationmode none
attr source decapPk
attr title "packets decapsulated, count"
scalar WiredNetworkExample.router.eth[0].encap decapPk:sum(packetBytes) 11607060
attr interpolationmode none
attr source decapPk
attr title "packets decapsulated, sum(packetBytes)"
scalar WiredNetworkExample.router.eth[0].encap encapPk:count 37360
attr interpolationmode none
attr source encapPk
attr title "packets encapsulated, count"
scalar WiredNetworkExample.router.eth[0].encap encapPk:sum(packetBytes) 11494320
attr interpolationmode none
attr source encapPk
attr title "packets encapsulated, sum(packetBytes)"
scalar WiredNetworkExample.router.ipv4.ip packetDropAddressResolutionFailed:count 0
attr interpolationmode none
attr source packetDropReasonIsAddressResolutionFailed(packetDropped)
attr title "packet drop: address resolution failed, count"
scalar WiredNetworkExample.router.ipv4.ip packetDropAddressResolutionFailed:sum(packetBytes) 0
attr interpolationmode none
attr source packetDropReasonIsAddressResolutionFailed(packetDropped)
attr title "packet drop: address resolution failed, sum(packetBytes)"
scalar WiredNetworkExample.router.ipv4.ip packetDropHopLimitReached:count 0
attr interpolationmode none
attr source packetDropReasonIsHopLimitReached(packetDropped)
attr title "packet drop: hop limit reached, count"
scalar WiredNetworkExample.router.ipv4.ip packetDropHopLimitReached:sum(packetBytes) 0
attr interpolationmode none
attr source packetDropReasonIsHopLimitReached(packetDropped)
attr title "packet drop: hop limit reached, sum(packetBytes)"
scalar WiredNetworkExample.router.ipv4.ip packetDropForwardingDisabled:count 0
attr interpolationmode none
attr source packetDropReasonIsForwardingDisabled(packetDropped)
attr title "packet drop: forwarding disabled, count"
scalar WiredNetworkExample.router.ipv4.ip packetDropForwardingDisabled:sum(packetBytes) 0
attr interpolationmode none
attr source packetDropReasonIsForwardingDisabled(packetDropped)
attr title "packet drop: forwarding disabled, sum(packetBytes)"
scalar WiredNetworkExample.router.ipv4.ip packetDropNoInterfaceFound:count 0
attr interpolationmode none
attr source packetDropReasonIsNoInterfaceFound(packetDropped)
attr title "packet drop: no interface found, count"
scalar WiredNetworkExample.router.ipv4.ip packetDropNoInterfaceFound:sum(packetBytes) 0
attr interpolationmode none
attr source packetDropReasonIsNoInterfaceFound(packetDropped)
attr title "packet drop: no interface found, sum(packetBytes)"
scalar WiredNetworkExample.router.ipv4.ip packetDropNoRouteFound:count 0
attr interpolationmode none
attr source packetDropReasonIsNoRouteFound(packetDropped)
attr title "packet drop: no route found, count"
scalar WiredNetworkExample.router.ipv4.ip packetDropNoRouteFound:sum(packetBytes) 0
attr interpolationmode none
attr source packetDropReasonIsNoRouteFound(packetDropped)
attr title "packet drop: no route found, sum(packetBytes)"
scalar WiredNetworkExample.router.ipv4.ip packetDropUndefined:count 0
attr interpolationmode none
attr source packetDropReasonIsUndefined(packetDropped)
attr title "packet drop: undefined, count"
scalar WiredNetworkExample.router.ipv4.ip packetDropUndefined:sum(packetBytes) 0
attr interpolationmode none
attr source packetDropReasonIsUndefined(packetDropped)
attr title "packet drop: undefined, sum(packetBytes)"
scalar WiredNetworkExample.router.ipv4.arp arpResolutionFailed:count 0
attr title "ARP failed resolutions, count"
scalar WiredNetworkExample.router.ipv4.arp arpResolutionCompleted:count 10
attr title "ARP completed resolutions, count"
scalar WiredNetworkExample.router.ipv4.arp arpResolutionInitiated:count 0
attr title "ARP initiated resolutions, count"
scalar WiredNetworkExample.router.ipv4.arp arpReplySent:count 10
attr source arpReplySent
attr title "ARP replies sent, count"
scalar WiredNetworkExample.router.ipv4.arp arpReplySent:sum(packetBytes) 280
attr source arpReplySent
attr title "ARP replies sent, sum(packetBytes)"
scalar WiredNetworkExample.router.ipv4.arp arpRequestSent:count 0
attr source arpRequestSent
attr title "ARP request sent, count"
scalar WiredNetworkExample.router.ipv4.arp arpRequestSent:sum(packetBytes) 0
attr source arpRequestSent
attr title "ARP request sent, sum(packetBytes)"
scalar WiredNetworkExample.switch.relayUnit "number of received BPDUs from STP module" 0
scalar WiredNetworkExample.switch.relayUnit "number of received frames from network (including BPDUs)" 74730
scalar WiredNetworkExample.switch.relayUnit "number of dropped frames (including BPDUs)" 0
scalar WiredNetworkExample.switch.relayUnit "number of delivered BPDUs to the STP module" 0
scalar WiredNetworkExample.switch.relayUnit "number of dispatched BPDU frames to the network" 0
scalar WiredNetworkExample.switch.relayUnit "number of dispatched non-BDPU frames to the network" 74820
scalar WiredNetworkExample.switch.eth[0].mac "simulated time" 242.000016024
scalar WiredNetworkExample.switch.eth[0].mac full-duplex 1
scalar WiredNetworkExample.switch.eth[0].mac "frames/sec sent" 154.42147737831
scalar WiredNetworkExample.switch.eth[0].mac "frames/sec rcvd" 154.38015506699
scalar WiredNetworkExample.switch.eth[0].mac "bits/sec sent" 405941.13014545
scalar WiredNetworkExample.switch.eth[0].mac "bits/sec rcvd" 405919.97312206
scalar WiredNetworkExample.switch.eth[0].mac "rx channel idle (%)" 99.958419969695
scalar WiredNetworkExample.switch.eth[0].mac "rx channel utilization (%)" 0.041580030304635
scalar WiredNetworkExample.switch.eth[0].mac "rx channel collision (%)" 0
scalar WiredNetworkExample.switch.eth[0].mac collisions 0
scalar WiredNetworkExample.switch.eth[0].mac backoffs 0
scalar WiredNetworkExample.switch.eth[0].mac rxPausePkUnits:count 0
attr interpolationmode none
attr title "pause units received, count"
scalar WiredNetworkExample.switch.eth[0].mac rxPausePkUnits:sum 0
attr interpolationmode none
attr title "pause units received, sum"
scalar WiredNetworkExample.switch.eth[0].mac txPausePkUnits:count 0
attr interpolationmode none
attr title "pause units sent, count"
scalar WiredNetworkExample.switch.eth[0].mac txPausePkUnits:sum 0
attr interpolationmode none
attr title "pause units sent, sum"
scalar WiredNetworkExample.switch.eth[0].mac rxPkOk:count 37360
attr interpolationmode none
attr source rxPkOk
attr title "packets received OK, count"
scalar WiredNetworkExample.switch.eth[0].mac rxPkOk:sum(packetBytes) 12279080
attr interpolationmode none
attr source rxPkOk
attr title "packets received OK, sum(packetBytes)"
scalar WiredNetworkExample.switch.eth[0].mac backoffSlotsGenerated:count 0
attr interpolationmode none
attr title "backoff, count"
scalar WiredNetworkExample.switch.eth[0].mac collision:count 0
attr interpolationmode none
attr title "collision, count"
scalar WiredNetworkExample.switch.eth[0].mac txPk:count 37370
attr interpolationmode none
attr source packetSentToLower
attr title "packets transmitted, count"
scalar WiredNetworkExample.switch.eth[0].mac txPk:sum(packetBytes) 12279720
attr interpolationmode none
attr source packetSentToLower
attr title "packets transmitted, sum(packetBytes)"
scalar WiredNetworkExample.switch.eth[0].mac packetReceivedFromUpper:count 37370
attr interpolationmode none
attr source packetReceivedFromUpper
attr title "packet bytes from higher layer, count"
scalar WiredNetworkExample.switch.eth[0].mac packetReceivedFromUpper:sum(packetBytes) 12279720
attr interpolationmode none
attr source packetReceivedFromUpper
attr title "packet bytes from higher layer, sum(packetBytes)"
scalar WiredNetworkExample.switch.eth[0].mac passedUpPk:count 37360
attr interpolationmode none
attr source packetSentToUpper
attr title "packets passed to higher layer, count"
scalar WiredNetworkExample.switch.eth[0].mac passedUpPk:sum(packetBytes) 12279080
attr interpolationmode none
attr source packetSentToUpper
attr title "packets passed to higher layer, sum(packetBytes)"
scalar WiredNetworkExample.switch.eth[0].mac packetDropIncorrectlyReceived:count 0
attr interpolationmode none
attr source packetDropReasonIsIncorrectlyReceived(packetDropped)
attr title "packet drop: incorrectly received, count"
scalar WiredNetworkExample.switch.eth[0].mac packetDropIncorrectlyReceived:sum(packetBytes) 0
attr interpolationmode none
attr source packetDropReasonIsIncorrectlyReceived(packetDropped)
attr title "packet drop: incorrectly received, sum(packetBytes)"
scalar WiredNetworkExample.switch.eth[0].mac packetDropInterfaceDown:count 0
attr interpolationmode none
attr source packetDropReasonIsInterfaceDown(packetDropped)
attr title "packet drop: interface down, count"
scalar WiredNetworkExample.switch.eth[0].mac packetDropInterfaceDown:sum(packetBytes) 0
attr interpolationmode none
attr source packetDropReasonIsInterfaceDown(packetDropped)
attr title "packet drop: interface down, sum(packetBytes)"
scalar WiredNetworkExample.switch.eth[0].mac packetDropNotAddressedToUs:count 0
attr interpolationmode none
attr source packetDropReasonIsNotAddressedToUs(packetDropped)
attr title "packet drop: not addressed to us, count"
scalar WiredNetworkExample.switch.eth[0].mac packetDropNotAddressedToUs:sum(packetBytes) 0
attr interpolationmode none
attr source packetDropReasonIsNotAddressedToUs(packetDropped)
attr title "packet drop: not addressed to us, sum(packetBytes)"
scalar WiredNetworkExample.switch.eth[1].mac "simulated time" 242.000016024
scalar WiredNetworkExample.switch.eth[1].mac full-duplex 1
scalar WiredNetworkExample.switch.eth[1].mac "frames/sec sent" 15.475205586881
scalar WiredNetworkExample.switch.eth[1].mac "frames/sec rcvd" 15.442147737831
scalar WiredNetworkExample.switch.eth[1].mac "bits/sec sent" 40611.038633259
scalar WiredNetworkExample.switch.eth[1].mac "bits/sec rcvd" 40594.113014545
scalar WiredNetworkExample.switch.eth[1].mac "rx channel idle (%)" 99.995841758953
scalar WiredNetworkExample.switch.eth[1].mac "rx channel utilization (%)" 0.0041582410469766
scalar WiredNetworkExample.switch.eth[1].mac "rx channel collision (%)" 0
scalar WiredNetworkExample.switch.eth[1].mac collisions 0
scalar WiredNetworkExample.switch.eth[1].mac backoffs 0
scalar WiredNetworkExample.switch.eth[1].mac rxPausePkUnits:count 0
attr interpolationmode none
attr title "pause units received, count"
scalar WiredNetworkExample.switch.eth[1].mac rxPausePkUnits:sum 0
attr interpolationmode none
attr title "pause units received, sum"
scalar WiredNetworkExample.switch.eth[1].mac txPausePkUnits:count 0
attr interpolationmode none
attr title "pause units sent, count"
scalar WiredNetworkExample.switch.eth[1].mac txPausePkUnits:sum 0
attr interpolationmode none
attr title "pause units sent, sum"
scalar WiredNetworkExample.switch.eth[1].mac rxPkOk:count 3737
attr interpolationmode none
attr source rxPkOk
attr title "packets received OK, count"
scalar WiredNetworkExample.switch.eth[1].mac rxPkOk:sum(packetBytes) 1227972
attr interpolationmode none
attr source rxPkOk
attr title "packets received OK, sum(packetBytes)"
scalar WiredNetworkExample.switch.eth[1].mac backoffSlotsGenerated:count 0
attr interpolationmode none
attr title "backoff, count"
scalar WiredNetworkExample.switch.eth[1].mac collision:count 0
attr interpolationmode none
attr title "collision, count"
scalar WiredNetworkExample.switch.eth[1].mac txPk:count 3745
attr interpolationmode none
attr source packetSentToLower
attr title "packets transmitted, count"
scalar WiredNetworkExample.switch.eth[1].mac txPk:sum(packetBytes) 1228484
attr interpolationmode none
attr source packetSentToLower
attr title "packets transmitted, sum(packetBytes)"
scalar WiredNetworkExample.switch.eth[1].mac packetReceivedFromUpper:count 3745
attr interpolationmode none
attr source packetReceivedFromUpper
attr title "packet bytes from higher layer, count"
scalar WiredNetworkExample.switch.eth[1].mac packetReceivedFromUpper:sum(packetBytes) 1228484
attr interpolationmode none
attr source packetReceivedFromUpper
attr title "packet bytes from higher layer, sum(packetBytes)"
scalar WiredNetworkExample.switch.eth[1].mac passedUpPk:count 3737
attr interpolationmode none
attr source packetSentToUpper
attr title "packets passed to higher layer, count"
scalar WiredNetworkExample.switch.eth[1].mac passedUpPk:sum(packetBytes) 1227972
attr interpolationmode none
attr source packetSentToUpper
attr title "packets passed to higher layer, sum(packetBytes)"
scalar WiredNetworkExample.switch.eth[1].mac packetDropIncorrectlyReceived:count 0
attr interpolationmode none
attr source packetDropReasonIsIncorrectlyReceived(packetDropped)
attr title "packet drop: incorrectly received, count"
scalar WiredNetworkExample.switch.eth[1].mac packetDropIncorrectlyReceived:sum(packetBytes) 0
attr interpolationmode none
attr source packetDropReasonIsIncorrectlyReceived(packetDropped)
attr title "packet drop: incorrectly received, sum(packetBytes)"
scalar WiredNetworkExample.switch.eth[1].mac packetDropInterfaceDown:count 0
attr interpolationmode none
attr source packetDropReasonIsInterfaceDown(packetDropped)
attr title "packet drop: interface down, count"
scalar WiredNetworkExample.switch.eth[1].mac packetDropInterfaceDown:sum(packetBytes) 0
attr interpolationmode none
attr source packetDropReasonIsInterfaceDown(packetDropped)
attr title "packet drop: interface down, sum(packetBytes)"
scalar WiredNetworkExample.switch.eth[1].mac packetDropNotAddressedToUs:count 0
attr interpolationmode none
attr source packetDropReasonIsNotAddressedToUs(packetDropped)
attr title "packet drop: not addressed to us, count"
scalar WiredNetworkExample.switch.eth[1].mac packetDropNotAddressedToUs:sum(packetBytes) 0
attr interpolationmode none
attr source packetDropReasonIsNotAddressedToUs(packetDropped)
attr title "packet drop: not addressed to us, sum(packetBytes)"
scalar WiredNetworkExample.switch.eth[2].mac "simulated time" 242.000016024
scalar WiredNetworkExample.switch.eth[2].mac full-duplex 1
scalar WiredNetworkExample.switch.eth[2].mac "frames/sec sent" 15.475205586881
scalar WiredNetworkExample.switch.eth[2].mac "frames/sec rcvd" 15.442147737831
scalar WiredNetworkExample.switch.eth[2].mac "bits/sec sent" 40611.038633259
scalar WiredNetworkExample.switch.eth[2].mac "bits/sec rcvd" 40594.113014545
scalar WiredNetworkExample.switch.eth[2].mac "rx channel idle (%)" 99.995841758953
scalar WiredNetworkExample.switch.eth[2].mac "rx channel utilization (%)" 0.0041582410469766
scalar WiredNetworkExample.switch.eth[2].mac "rx channel collision (%)" 0
scalar WiredNetworkExample.switch.eth[2].mac collisions 0
scalar WiredNetworkExample.switch.eth[2].mac backoffs 0
scalar WiredNetworkExample.switch.eth[2].mac rxPausePkUnits:count 0
attr interpolationmode none
attr title "pause units received, count"
scalar WiredNetworkExample.switch.eth[2].mac rxPausePkUnits:sum 0
attr interpolationmode none
attr title "pause units received, sum"
scalar WiredNetworkExample.switch.eth[2].mac txPausePkUnits:count 0
attr interpolationmode none
attr title "pause units sent, count"
scalar WiredNetworkExample.switch.eth[2].mac txPausePkUnits:sum 0
attr interpolationmode none
attr title "pause units sent, sum"
scalar WiredNetworkExample.switch.eth[2].mac rxPkOk:count 3737
attr interpolationmode none
attr source rxPkOk
attr title "packets received OK, count"
scalar WiredNetworkExample.switch.eth[2].mac rxPkOk:sum(packetBytes) 1227972
attr interpolationmode none
attr source rxPkOk
attr title "packets received OK, sum(packetBytes)"
scalar WiredNetworkExample.switch.eth[2].mac backoffSlotsGenerated:count 0
attr interpolationmode none
attr title "backoff, count"
scalar WiredNetworkExample.switch.eth[2].mac collision:count 0
attr interpolationmode none
attr title "collision, count"
scalar WiredNetworkExample.switch.eth[2].mac txPk:count 3745
attr interpolationmode none
attr source packetSentToLower
attr title "packets transmitted, count"
scalar WiredNetworkExample.switch.eth[2].mac txPk:sum(packetBytes) 1228484
attr interpolationmode none
attr source packetSentToLower
attr title "packets transmitted, sum(packetBytes)"
scalar WiredNetworkExample.switch.eth[2].mac packetReceivedFromUpper:count 3745
attr interpolationmode none
attr source packetReceivedFromUpper
attr title "packet bytes from higher layer, count"
scalar WiredNetworkExample.switch.eth[2].mac packetReceivedFromUpper:sum(packetBytes) 1228484
attr interpolationmode none
attr source packetReceivedFromUpper
attr title "packet bytes from higher layer, sum(packetBytes)"
scalar WiredNetworkExample.switch.eth[2].mac passedUpPk:count 3737
attr interpolationmode none
attr source packetSentToUpper
attr title "packets passed to higher layer, count"
scalar WiredNetworkExample.switch.eth[2].mac passedUpPk:sum(packetBytes) 1227972
attr interpolationmode none
attr source packetSentToUpper
attr title "packets passed to higher layer, sum(packetBytes)"
scalar WiredNetworkExample.switch.eth[2].mac packetDropIncorrectlyReceived:count 0
attr interpolationmode none
attr source packetDropReasonIsIncorrectlyReceived(packetDropped)
attr title "packet drop: incorrectly received, count"
scalar WiredNetworkExample.switch.eth[2].mac packetDropIncorrectlyReceived:sum(packetBytes) 0
attr interpolationmode none
attr source packetDropReasonIsIncorrectlyReceived(packetDropped)
attr title "packet drop: incorrectly received, sum(packetBytes)"
scalar WiredNetworkExample.switch.eth[2].mac packetDropInterfaceDown:count 0
attr interpolationmode none
attr source packetDropReasonIsInterfaceDown(packetDropped)
attr title "packet drop: interface down, count"
scalar WiredNetworkExample.switch.eth[2].mac packetDropInterfaceDown:sum(packetBytes) 0
attr interpolationmode none
attr source packetDropReasonIsInterfaceDown(packetDropped)
attr title "packet drop: interface down, sum(packetBytes)"
scalar WiredNetworkExample.switch.eth[2].mac packetDropNotAddressedToUs:count 0
attr interpolationmode none
attr source packetDropReasonIsNotAddressedToUs(packetDropped)
attr title "packet drop: not addressed to us, count"
scalar WiredNetworkExample.switch.eth[2].mac packetDropNotAddressedToUs:sum(packetBytes) 0
attr interpolationmode none
attr source packetDropReasonIsNotAddressedToUs(packetDropped)
attr title "packet drop: not addressed to us, sum(packetBytes)"
scalar WiredNetworkExample.switch.eth[3].mac "simulated time" 242.000016024
scalar WiredNetworkExample.switch.eth[3].mac full-duplex 1
scalar WiredNetworkExample.switch.eth[3].mac "frames/sec sent" 15.475205586881
scalar WiredNetworkExample.switch.eth[3].mac "frames/sec rcvd" 15.442147737831
scalar WiredNetworkExample.switch.eth[3].mac "bits/sec sent" 40611.038633259
scalar WiredNetworkExample.switch.eth[3].mac "bits/sec rcvd" 40594.113014545
scalar WiredNetworkExample.switch.eth[3].mac "rx channel idle (%)" 99.995841758953
scalar WiredNetworkExample.switch.eth[3].mac "rx channel utilization (%)" 0.0041582410469766
scalar WiredNetworkExample.switch.eth[3].mac "rx channel collision (%)" 0
scalar WiredNetworkExample.switch.eth[3].mac collisions 0
scalar WiredNetworkExample.switch.eth[3].mac backoffs 0
scalar WiredNetworkExample.switch.eth[3].mac rxPausePkUnits:count 0
attr interpolationmode none
attr title "pause units received, count"
scalar WiredNetworkExample.switch.eth[3].mac rxPausePkUnits:sum 0
attr interpolationmode none
attr title "pause units received, sum"
scalar WiredNetworkExample.switch.eth[3].mac txPausePkUnits:count 0
attr interpolationmode none
attr title "pause units sent, count"
scalar WiredNetworkExample.switch.eth[3].mac txPausePkUnits:sum 0
attr interpolationmode none
attr title "pause units sent, sum"
scalar WiredNetworkExample.switch.eth[3].mac rxPkOk:count 3737
attr interpolationmode none
attr source rxPkOk
attr title "packets received OK, count"
scalar WiredNetworkExample.switch.eth[3].mac rxPkOk:sum(packetBytes) 1227972
attr interpolationmode none
attr source rxPkOk
attr title "packets received OK, sum(packetBytes)"
scalar WiredNetworkExample.switch.eth[3].mac backoffSlotsGenerated:count 0
attr interpolationmode none
attr title "backoff, count"
scalar WiredNetworkExample.switch.eth[3].mac collision:count 0
attr interpolationmode none
attr title "collision, count"
scalar WiredNetworkExample.switch.eth[3].mac txPk:count 3745
attr interpolationmode none
attr source packetSentToLower
attr title "packets transmitted, count"
scalar WiredNetworkExample.switch.eth[3].mac txPk:sum(packetBytes) 1228484
attr interpolationmode none
attr source packetSentToLower
attr title "packets transmitted, sum(packetBytes)"
scalar WiredNetworkExample.switch.eth[3].mac packetReceivedFromUpper:count 3745
attr interpolationmode none
attr source packetReceivedFromUpper
attr title "packet bytes from higher layer, count"
scalar WiredNetworkExample.switch.eth[3].mac packetReceivedFromUpper:sum(packetBytes) 1228484
attr interpolationmode none
attr source packetReceivedFromUpper
attr title "packet bytes from higher layer, sum(packetBytes)"
scalar WiredNetworkExample.switch.eth[3].mac passedUpPk:count 3737
attr interpolationmode none
attr source packetSentToUpper
attr title "packets passed to higher layer, count"
scalar WiredNetworkExample.switch.eth[3].mac passedUpPk:sum(packetBytes) 1227972
attr interpolationmode none
attr source packetSentToUpper
attr title "packets passed to higher layer, sum(packetBytes)"
scalar WiredNetworkExample.switch.eth[3].mac packetDropIncorrectlyReceived:count 0
attr interpolationmode none
attr source packetDropReasonIsIncorrectlyReceived(packetDropped)
attr title "packet drop: incorrectly received, count"
scalar WiredNetworkExample.switch.eth[3].mac packetDropIncorrectlyReceived:sum(packetBytes) 0
attr interpolationmode none
attr source packetDropReasonIsIncorrectlyReceived(packetDropped)
attr title "packet drop: incorrectly received, sum(packetBytes)"
scalar WiredNetworkExample.switch.eth[3].mac packetDropInterfaceDown:count 0
attr interpolationmode none
attr source packetDropReasonIsInterfaceDown(packetDropped)
attr title "packet drop: interface down, count"
scalar WiredNetworkExample.switch.eth[3].mac packetDropInterfaceDown:sum(packetBytes) 0
attr interpolationmode none
attr source packetDropReasonIsInterfaceDown(packetDropped)
attr title "packet drop: interface down, sum(packetBytes)"
scalar WiredNetworkExample.switch.eth[3].mac packetDropNotAddressedToUs:count 0
attr interpolationmode none
attr source packetDropReasonIsNotAddressedToUs(packetDropped)
attr title "packet drop: not addressed to us, count"
scalar WiredNetworkExample.switch.eth[3].mac packetDropNotAddressedToUs:sum(packetBytes) 0
attr interpolationmode none
attr source packetDropReasonIsNotAddressedToUs(packetDropped)
attr title "packet drop: not addressed to us, sum(packetBytes)"
scalar WiredNetworkExample.switch.eth[4].mac "simulated time" 242.000016024
scalar WiredNetworkExample.switch.eth[4].mac full-duplex 1
scalar WiredNetworkExample.switch.eth[4].mac "frames/sec sent" 15.475205586881
scalar WiredNetworkExample.switch.eth[4].mac "frames/sec rcvd" 15.442147737831
scalar WiredNetworkExample.switch.eth[4].mac "bits/sec sent" 40611.038633259
scalar WiredNetworkExample.switch.eth[4].mac "bits/sec rcvd" 40594.113014545
scalar WiredNetworkExample.switch.eth[4].mac "rx channel idle (%)" 99.995841758953
scalar WiredNetworkExample.switch.eth[4].mac "rx channel utilization (%)" 0.0041582410469766
scalar WiredNetworkExample.switch.eth[4].mac "rx channel collision (%)" 0
scalar WiredNetworkExample.switch.eth[4].mac collisions 0
scalar WiredNetworkExample.switch.eth[4].mac backoffs 0
scalar WiredNetworkExample.switch.eth[4].mac rxPausePkUnits:count 0
attr interpolationmode none
attr title "pause units received, count"
scalar WiredNetworkExample.switch.eth[4].mac rxPausePkUnits:sum 0
attr interpolationmode none
attr title "pause units received, sum"
scalar WiredNetworkExample.switch.eth[4].mac txPausePkUnits:count 0
attr interpolationmode none
attr title "pause units sent, count"
scalar WiredNetworkExample.switch.eth[4].mac txPausePkUnits:sum 0
attr interpolationmode none
attr title "pause units sent, sum"
scalar WiredNetworkExample.switch.eth[4].mac rxPkOk:count 3737
attr interpolationmode none
attr source rxPkOk
attr title "packets received OK, count"
scalar WiredNetworkExample.switch.eth[4].mac rxPkOk:sum(packetBytes) 1227972
attr interpolationmode none
attr source rxPkOk
attr title "packets received OK, sum(packetBytes)"
scalar WiredNetworkExample.switch.eth[4].mac backoffSlotsGenerated:count 0
attr interpolationmode none
attr title "backoff, count"
scalar WiredNetworkExample.switch.eth[4].mac collision:count 0
attr interpolationmode none
attr title "collision, count"
scalar WiredNetworkExample.switch.eth[4].mac txPk:count 3745
attr interpolationmode none
attr source packetSentToLower
attr title "packets transmitted, count"
scalar WiredNetworkExample.switch.eth[4].mac txPk:sum(packetBytes) 1228484
attr interpolationmode none
attr source packetSentToLower
attr title "packets transmitted, sum(packetBytes)"
scalar WiredNetworkExample.switch.eth[4].mac packetReceivedFromUpper:count 3745
attr interpolationmode none
attr source packetReceivedFromUpper
attr title "packet bytes from higher layer, count"
scalar WiredNetworkExample.switch.eth[4].mac packetReceivedFromUpper:sum(packetBytes) 1228484
attr interpolationmode none
attr source packetReceivedFromUpper
attr title "packet bytes from higher layer, sum(packetBytes)"
scalar WiredNetworkExample.switch.eth[4].mac passedUpPk:count 3737
attr interpolationmode none
attr source packetSentToUpper
attr title "packets passed to higher layer, count"
scalar WiredNetworkExample.switch.eth[4].mac passedUpPk:sum(packetBytes) 1227972
attr interpolationmode none
attr source packetSentToUpper
attr title "packets passed to higher layer, sum(packetBytes)"
scalar WiredNetworkExample.switch.eth[4].mac packetDropIncorrectlyReceived:count 0
attr interpolationmode none
attr source packetDropReasonIsIncorrectlyReceived(packetDropped)
attr title "packet drop: incorrectly received, count"
scalar WiredNetworkExample.switch.eth[4].mac packetDropIncorrectlyReceived:sum(packetBytes) 0
attr interpolationmode none
attr source packetDropReasonIsIncorrectlyReceived(packetDropped)
attr title "packet drop: incorrectly received, sum(packetBytes)"
scalar WiredNetworkExample.switch.eth[4].mac packetDropInterfaceDown:count 0
attr interpolationmode none
attr source packetDropReasonIsInterfaceDown(packetDropped)
attr title "packet drop: interface down, count"
scalar WiredNetworkExample.switch.eth[4].mac packetDropInterfaceDown:sum(packetBytes) 0
attr interpolationmode none
attr source packetDropReasonIsInterfaceDown(packetDropped)
attr title "packet drop: interface down, sum(packetBytes)"
scalar WiredNetworkExample.switch.eth[4].mac packetDropNotAddressedToUs:count 0
attr interpolationmode none
attr source packetDropReasonIsNotAddressedToUs(packetDropped)
attr title "packet drop: not addressed to us, count"
scalar WiredNetworkExample.switch.eth[4].mac packetDropNotAddressedToUs:sum(packetBytes) 0
attr interpolationmode none
attr source packetDropReasonIsNotAddressedToUs(packetDropped)
attr title "packet drop: not addressed to us, sum(packetBytes)"
scalar WiredNetworkExample.switch.eth[5].mac "simulated time" 242.000016024
scalar WiredNetworkExample.switch.eth[5].mac full-duplex 1
scalar WiredNetworkExample.switch.eth[5].mac "frames/sec sent" 15.475205586881
scalar WiredNetworkExample.switch.eth[5].mac "frames/sec rcvd" 15.442147737831
scalar WiredNetworkExample.switch.eth[5].mac "bits/sec sent" 40611.038633259
scalar WiredNetworkExample.switch.eth[5].mac "bits/sec rcvd" 40594.113014545
scalar WiredNetworkExample.switch.eth[5].mac "rx channel idle (%)" 99.995841758953
scalar WiredNetworkExample.switch.eth[5].mac "rx channel utilization (%)" 0.0041582410469766
scalar WiredNetworkExample.switch.eth[5].mac "rx channel collision (%)" 0
scalar WiredNetworkExample.switch.eth[5].mac collisions 0
scalar WiredNetworkExample.switch.eth[5].mac backoffs 0
scalar WiredNetworkExample.switch.eth[5].mac rxPausePkUnits:count 0
attr interpolationmode none
attr title "pause units received, count"
scalar WiredNetworkExample.switch.eth[5].mac rxPausePkUnits:sum 0
attr interpolationmode none
attr title "pause units received, sum"
scalar WiredNetworkExample.switch.eth[5].mac txPausePkUnits:count 0
attr interpolationmode none
attr title "pause units sent, count"
scalar WiredNetworkExample.switch.eth[5].mac txPausePkUnits:sum 0
attr interpolationmode none
attr title "pause units sent, sum"
scalar WiredNetworkExample.switch.eth[5].mac rxPkOk:count 3737
attr interpolationmode none
attr source rxPkOk
attr title "packets received OK, count"
scalar WiredNetworkExample.switch.eth[5].mac rxPkOk:sum(packetBytes) 1227972
attr interpolationmode none
attr source rxPkOk
attr title "packets received OK, sum(packetBytes)"
scalar WiredNetworkExample.switch.eth[5].mac backoffSlotsGenerated:count 0
attr interpolationmode none
attr title "backoff, count"
scalar WiredNetworkExample.switch.eth[5].mac collision:count 0
attr interpolationmode none
attr title "collision, count"
scalar WiredNetworkExample.switch.eth[5].mac txPk:count 3745
attr interpolationmode none
attr source packetSentToLower
attr title "packets transmitted, count"
scalar WiredNetworkExample.switch.eth[5].mac txPk:sum(packetBytes) 1228484
attr interpolationmode none
attr source packetSentToLower
attr title "packets transmitted, sum(packetBytes)"
scalar WiredNetworkExample.switch.eth[5].mac packetReceivedFromUpper:count 3745
attr interpolationmode none
attr source packetReceivedFromUpper
attr title "packet bytes from higher layer, count"
scalar WiredNetworkExample.switch.eth[5].mac packetReceivedFromUpper:sum(packetBytes) 1228484
attr interpolationmode none
attr source packetReceivedFromUpper
attr title "packet bytes from higher layer, sum(packetBytes)"
scalar WiredNetworkExample.switch.eth[5].mac passedUpPk:count 3737
attr interpolationmode none
attr source packetSentToUpper
attr title "packets passed to higher layer, count"
scalar WiredNetworkExample.switch.eth[5].mac passedUpPk:sum(packetBytes) 1227972
attr interpolationmode none
attr source packetSentToUpper
attr title "packets passed to higher layer, sum(packetBytes)"
scalar WiredNetworkExample.switch.eth[5].mac packetDropIncorrectlyReceived:count 0
attr interpolationmode none
attr source packetDropReasonIsIncorrectlyReceived(packetDropped)
attr title "packet drop: incorrectly received, count"
scalar WiredNetworkExample.switch.eth[5].mac packetDropIncorrectlyReceived:sum(packetBytes) 0
attr interpolationmode none
attr source packetDropReasonIsIncorrectlyReceived(packetDropped)
attr title "packet drop: incorrectly received, sum(packetBytes)"
scalar WiredNetworkExample.switch.eth[5].mac packetDropInterfaceDown:count 0
attr interpolationmode none
attr source packetDropReasonIsInterfaceDown(packetDropped)
attr title "packet drop: interface down, count"
scalar WiredNetworkExample.switch.eth[5].mac packetDropInterfaceDown:sum(packetBytes) 0
attr interpolationmode none
attr source packetDropReasonIsInterfaceDown(packetDropped)
attr title "packet drop: interface down, sum(packetBytes)"
scalar WiredNetworkExample.switch.eth[5].mac packetDropNotAddressedToUs:count 0
attr interpolationmode none
attr source packetDropReasonIsNotAddressedToUs(packetDropped)
attr title "packet drop: not addressed to us, count"
scalar WiredNetworkExample.switch.eth[5].mac packetDropNotAddressedToUs:sum(packetBytes) 0
attr interpolationmode none
attr source packetDropReasonIsNotAddressedToUs(packetDropped)
attr title "packet drop: not addressed to us, sum(packetBytes)"
scalar WiredNetworkExample.switch.eth[6].mac "simulated time" 242.000016024
scalar WiredNetworkExample.switch.eth[6].mac full-duplex 1
scalar WiredNetworkExample.switch.eth[6].mac "frames/sec sent" 15.475205586881
scalar WiredNetworkExample.switch.eth[6].mac "frames/sec rcvd" 15.442147737831
scalar WiredNetworkExample.switch.eth[6].mac "bits/sec sent" 40611.038633259
scalar WiredNetworkExample.switch.eth[6].mac "bits/sec rcvd" 40594.113014545
scalar WiredNetworkExample.switch.eth[6].mac "rx channel idle (%)" 99.995841758953
scalar WiredNetworkExample.switch.eth[6].mac "rx channel utilization (%)" 0.0041582410469766
scalar WiredNetworkExample.switch.eth[6].mac "rx channel collision (%)" 0
scalar WiredNetworkExample.switch.eth[6].mac collisions 0
scalar WiredNetworkExample.switch.eth[6].mac backoffs 0
scalar WiredNetworkExample.switch.eth[6].mac rxPausePkUnits:count 0
attr interpolationmode none
attr title "pause units received, count"
scalar WiredNetworkExample.switch.eth[6].mac rxPausePkUnits:sum 0
attr interpolationmode none
attr title "pause units received, sum"
scalar WiredNetworkExample.switch.eth[6].mac txPausePkUnits:count 0
attr interpolationmode none
attr title "pause units sent, count"
scalar WiredNetworkExample.switch.eth[6].mac txPausePkUnits:sum 0
attr interpolationmode none
attr title "pause units sent, sum"
scalar WiredNetworkExample.switch.eth[6].mac rxPkOk:count 3737
attr interpolationmode none
attr source rxPkOk
attr title "packets received OK, count"
scalar WiredNetworkExample.switch.eth[6].mac rxPkOk:sum(packetBytes) 1227972
attr interpolationmode none
attr source rxPkOk
attr title "packets received OK, sum(packetBytes)"
scalar WiredNetworkExample.switch.eth[6].mac backoffSlotsGenerated:count 0
attr interpolationmode none
attr title "backoff, count"
scalar WiredNetworkExample.switch.eth[6].mac collision:count 0
attr interpolationmode none
attr title "collision, count"
scalar WiredNetworkExample.switch.eth[6].mac txPk:count 3745
attr interpolationmode none
attr source packetSentToLower
attr title "packets transmitted, count"
scalar WiredNetworkExample.switch.eth[6].mac txPk:sum(packetBytes) 1228484
attr interpolationmode none
attr source packetSentToLower
attr title "packets transmitted, sum(packetBytes)"
scalar WiredNetworkExample.switch.eth[6].mac packetReceivedFromUpper:count 3745
attr interpolationmode none
attr source packetReceivedFromUpper
attr title "packet bytes from higher layer, count"
scalar WiredNetworkExample.switch.eth[6].mac packetReceivedFromUpper:sum(packetBytes) 1228484
attr interpolationmode none
attr source packetReceivedFromUpper
attr title "packet bytes from higher layer, sum(packetBytes)"
scalar WiredNetworkExample.switch.eth[6].mac passedUpPk:count 3737
attr interpolationmode none
attr source packetSentToUpper
attr title "packets passed to higher layer, count"
scalar WiredNetworkExample.switch.eth[6].mac passedUpPk:sum(packetBytes) 1227972
attr interpolationmode none
attr source packetSentToUpper
attr title "packets passed to higher layer, sum(packetBytes)"
scalar WiredNetworkExample.switch.eth[6].mac packetDropIncorrectlyReceived:count 0
attr interpolationmode none
attr source packetDropReasonIsIncorrectlyReceived(packetDropped)
attr title "packet drop: incorrectly received, count"
scalar WiredNetworkExample.switch.eth[6].mac packetDropIncorrectlyReceived:sum(packetBytes) 0
attr interpolationmode none
attr source packetDropReasonIsIncorrectlyReceived(packetDropped)
attr title "packet drop: incorrectly received, sum(packetBytes)"
scalar WiredNetworkExample.switch.eth[6].mac packetDropInterfaceDown:count 0
attr interpolationmode none
attr source packetDropReasonIsInterfaceDown(packetDropped)
attr title "packet drop: interface down, count"
scalar WiredNetworkExample.switch.eth[6].mac packetDropInterfaceDown:sum(packetBytes) 0
attr interpolationmode none
attr source packetDropReasonIsInterfaceDown(packetDropped)
attr title "packet drop: interface down, sum(packetBytes)"
scalar WiredNetworkExample.switch.eth[6].mac packetDropNotAddressedToUs:count 0
attr interpolationmode none
attr source packetDropReasonIsNotAddressedToUs(packetDropped)
attr title "packet drop: not addressed to us, count"
scalar WiredNetworkExample.switch.eth[6].mac packetDropNotAddressedToUs:sum(packetBytes) 0
attr interpolationmode none
attr source packetDropReasonIsNotAddressedToUs(packetDropped)
attr title "packet drop: not addressed to us, sum(packetBytes)"
scalar WiredNetworkExample.switch.eth[7].mac "simulated time" 242.000016024
scalar WiredNetworkExample.switch.eth[7].mac full-duplex 1
scalar WiredNetworkExample.switch.eth[7].mac "frames/sec sent" 15.475205586881
scalar WiredNetworkExample.switch.eth[7].mac "frames/sec rcvd" 15.442147737831
scalar WiredNetworkExample.switch.eth[7].mac "bits/sec sent" 40611.038633259
scalar WiredNetworkExample.switch.eth[7].mac "bits/sec rcvd" 40594.113014545
scalar WiredNetworkExample.switch.eth[7].mac "rx channel idle (%)" 99.995841758953
scalar WiredNetworkExample.switch.eth[7].mac "rx channel utilization (%)" 0.0041582410469766
scalar WiredNetworkExample.switch.eth[7].mac "rx channel collision (%)" 0
scalar WiredNetworkExample.switch.eth[7].mac collisions 0
scalar WiredNetworkExample.switch.eth[7].mac backoffs 0
scalar WiredNetworkExample.switch.eth[7].mac rxPausePkUnits:count 0
attr interpolationmode none
attr title "pause units received, count"
scalar WiredNetworkExample.switch.eth[7].mac rxPausePkUnits:sum 0
attr interpolationmode none
attr title "pause units received, sum"
scalar WiredNetworkExample.switch.eth[7].mac txPausePkUnits:count 0
attr interpolationmode none
attr title "pause units sent, count"
scalar WiredNetworkExample.switch.eth[7].mac txPausePkUnits:sum 0
attr interpolationmode none
attr title "pause units sent, sum"
scalar WiredNetworkExample.switch.eth[7].mac rxPkOk:count 3737
attr interpolationmode none
attr source rxPkOk
attr title "packets received OK, count"
scalar WiredNetworkExample.switch.eth[7].mac rxPkOk:sum(packetBytes) 1227972
attr interpolationmode none
attr source rxPkOk
attr title "packets received OK, sum(packetBytes)"
scalar WiredNetworkExample.switch.eth[7].mac backoffSlotsGenerated:count 0
attr interpolationmode none
attr title "backoff, count"
scalar WiredNetworkExample.switch.eth[7].mac collision:count 0
attr interpolationmode none
attr title "collision, count"
scalar WiredNetworkExample.switch.eth[7].mac txPk:count 3745
attr interpolationmode none
attr source packetSentToLower
attr title "packets transmitted, count"
scalar WiredNetworkExample.switch.eth[7].mac txPk:sum(packetBytes) 1228484
attr interpolationmode none
attr source packetSentToLower
attr title "packets transmitted, sum(packetBytes)"
scalar WiredNetworkExample.switch.eth[7].mac packetReceivedFromUpper:count 3745
attr interpolationmode none
attr source packetReceivedFromUpper
attr title "packet bytes from higher layer, count"
scalar WiredNetworkExample.switch.eth[7].mac packetReceivedFromUpper:sum(packetBytes) 1228484
attr interpolationmode none
attr source packetReceivedFromUpper
attr title "packet bytes from higher layer, sum(packetBytes)"
scalar WiredNetworkExample.switch.eth[7].mac passedUpPk:count 3737
attr interpolationmode none
attr source packetSentToUpper
attr title "packets passed to higher layer, count"
scalar WiredNetworkExample.switch.eth[7].mac passedUpPk:sum(packetBytes) 1227972
attr interpolationmode none
attr source packetSentToUpper
attr title "packets passed to higher layer, sum(packetBytes)"
scalar WiredNetworkExample.switch.eth[7].mac packetDropIncorrectlyReceived:count 0
attr interpolationmode none
attr source packetDropReasonIsIncorrectlyReceived(packetDropped)
attr title "packet drop: incorrectly received, count"
scalar WiredNetworkExample.switch.eth[7].mac packetDropIncorrectlyReceived:sum(packetBytes) 0
attr interpolationmode none
attr source packetDropReasonIsIncorrectlyReceived(packetDropped)
attr title "packet drop: incorrectly received, sum(packetBytes)"
scalar WiredNetworkExample.switch.eth[7].mac packetDropInterfaceDown:count 0
attr interpolationmode none
attr source packetDropReasonIsInterfaceDown(packetDropped)
attr title "packet drop: interface down, count"
scalar WiredNetworkExample.switch.eth[7].mac packetDropInterfaceDown:sum(packetBytes) 0
attr interpolationmode none
attr source packetDropReasonIsInterfaceDown(packetDropped)
attr title "packet drop: interface down, sum(packetBytes)"
scalar WiredNetworkExample.switch.eth[7].mac packetDropNotAddressedToUs:count 0
attr interpolationmode none
attr source packetDropReasonIsNotAddressedToUs(packetDropped)
attr title "packet drop: not addressed to us, count"
scalar WiredNetworkExample.switch.eth[7].mac packetDropNotAddressedToUs:sum(packetBytes) 0
attr interpolationmode none
attr source packetDropReasonIsNotAddressedToUs(packetDropped)
attr title "packet drop: not addressed to us, sum(packetBytes)"
scalar WiredNetworkExample.switch.eth[8].mac "simulated time" 242.000016024
scalar WiredNetworkExample.switch.eth[8].mac full-duplex 1
scalar WiredNetworkExample.switch.eth[8].mac "frames/sec sent" 15.475205586881
scalar WiredNetworkExample.switch.eth[8].mac "frames/sec rcvd" 15.442147737831
scalar WiredNetworkExample.switch.eth[8].mac "bits/sec sent" 40611.038633259
scalar WiredNetworkExample.switch.eth[8].mac "bits/sec rcvd" 40594.113014545
scalar WiredNetworkExample.switch.eth[8].mac "rx channel idle (%)" 99.995841758953
scalar WiredNetworkExample.switch.eth[8].mac "rx channel utilization (%)" 0.0041582410469766
scalar WiredNetworkExample.switch.eth[8].mac "rx channel collision (%)" 0
scalar WiredNetworkExample.switch.eth[8].mac collisions 0
scalar WiredNetworkExample.switch.eth[8].mac backoffs 0
scalar WiredNetworkExample.switch.eth[8].mac rxPausePkUnits:count 0
attr interpolationmode none
attr title "pause units received, count"
scalar WiredNetworkExample.switch.eth[8].mac rxPausePkUnits:sum 0
attr interpolationmode none
attr title "pause units received, sum"
scalar WiredNetworkExample.switch.eth[8].mac txPausePkUnits:count 0
attr interpolationmode none
attr title "pause units sent, count"
scalar WiredNetworkExample.switch.eth[8].mac txPausePkUnits:sum 0
attr interpolationmode none
attr title "pause units sent, sum"
scalar WiredNetworkExample.switch.eth[8].mac rxPkOk:count 3737
attr interpolationmode none
attr source rxPkOk
attr title "packets received OK, count"
scalar WiredNetworkExample.switch.eth[8].mac rxPkOk:sum(packetBytes) 1227972
attr interpolationmode none
attr source rxPkOk
attr title "packets received OK, sum(packetBytes)"
scalar WiredNetworkExample.switch.eth[8].mac backoffSlotsGenerated:count 0
attr interpolationmode none
attr title "backoff, count"
scalar WiredNetworkExample.switch.eth[8].mac collision:count 0
attr interpolationmode none
attr title "collision, count"
scalar WiredNetworkExample.switch.eth[8].mac txPk:count 3745
attr interpolationmode none
attr source packetSentToLower
attr title "packets transmitted, count"
scalar WiredNetworkExample.switch.eth[8].mac txPk:sum(packetBytes) 1228484
attr interpolationmode none
attr source packetSentToLower
attr title "packets transmitted, sum(packetBytes)"
scalar WiredNetworkExample.switch.eth[8].mac packetReceivedFromUpper:count 3745
attr interpolationmode none
attr source packetReceivedFromUpper
attr title "packet bytes from higher layer, count"
scalar WiredNetworkExample.switch.eth[8].mac packetReceivedFromUpper:sum(packetBytes) 1228484
attr interpolationmode none
attr source packetReceivedFromUpper
attr title "packet bytes from higher layer, sum(packetBytes)"
scalar WiredNetworkExample.switch.eth[8].mac passedUpPk:count 3737
attr interpolationmode none
attr source packetSentToUpper
attr title "packets passed to higher layer, count"
scalar WiredNetworkExample.switch.eth[8].mac passedUpPk:sum(packetBytes) 1227972
attr interpolationmode none
attr source packetSentToUpper
attr title "packets passed to higher layer, sum(packetBytes)"
scalar WiredNetworkExample.switch.eth[8].mac packetDropIncorrectlyReceived:count 0
attr interpolationmode none
attr source packetDropReasonIsIncorrectlyReceived(packetDropped)
attr title "packet drop: incorrectly received, count"
scalar WiredNetworkExample.switch.eth[8].mac packetDropIncorrectlyReceived:sum(packetBytes) 0
attr interpolationmode none
attr source packetDropReasonIsIncorrectlyReceived(packetDropped)
attr title "packet drop: incorrectly received, sum(packetBytes)"
scalar WiredNetworkExample.switch.eth[8].mac packetDropInterfaceDown:count 0
attr interpolationmode none
attr source packetDropReasonIsInterfaceDown(packetDropped)
attr title "packet drop: interface down, count"
scalar WiredNetworkExample.switch.eth[8].mac packetDropInterfaceDown:sum(packetBytes) 0
attr interpolationmode none
attr source packetDropReasonIsInterfaceDown(packetDropped)
attr title "packet drop: interface down, sum(packetBytes)"
scalar WiredNetworkExample.switch.eth[8].mac packetDropNotAddressedToUs:count 0
attr interpolationmode none
attr source packetDropReasonIsNotAddressedToUs(packetDropped)
attr title "packet drop: not addressed to us, count"
scalar WiredNetworkExample.switch.eth[8].mac packetDropNotAddressedToUs:sum(packetBytes) 0
attr interpolationmode none
attr source packetDropReasonIsNotAddressedToUs(packetDropped)
attr title "packet drop: not addressed to us, sum(packetBytes)"
scalar WiredNetworkExample.switch.eth[9].mac "simulated time" 242.000016024
scalar WiredNetworkExample.switch.eth[9].mac full-duplex 1
scalar WiredNetworkExample.switch.eth[9].mac "frames/sec sent" 15.475205586881
scalar WiredNetworkExample.switch.eth[9].mac "frames/sec rcvd" 15.442147737831
scalar WiredNetworkExample.switch.eth[9].mac "bits/sec sent" 40611.038633259
scalar WiredNetworkExample.switch.eth[9].mac "bits/sec rcvd" 40594.113014545
scalar WiredNetworkExample.switch.eth[9].mac "rx channel idle (%)" 99.995841758953
scalar WiredNetworkExample.switch.eth[9].mac "rx channel utilization (%)" 0.0041582410469766
scalar WiredNetworkExample.switch.eth[9].mac "rx channel collision (%)" 0
scalar WiredNetworkExample.switch.eth[9].mac collisions 0
scalar WiredNetworkExample.switch.eth[9].mac backoffs 0
scalar WiredNetworkExample.switch.eth[9].mac rxPausePkUnits:count 0
attr interpolationmode none
attr title "pause units received, count"
scalar WiredNetworkExample.switch.eth[9].mac rxPausePkUnits:sum 0
attr interpolationmode none
attr title "pause units received, sum"
scalar WiredNetworkExample.switch.eth[9].mac txPausePkUnits:count 0
attr interpolationmode none
attr title "pause units sent, count"
scalar WiredNetworkExample.switch.eth[9].mac txPausePkUnits:sum 0
attr interpolationmode none
attr title "pause units sent, sum"
scalar WiredNetworkExample.switch.eth[9].mac rxPkOk:count 3737
attr interpolationmode none
attr source rxPkOk
attr title "packets received OK, count"
scalar WiredNetworkExample.switch.eth[9].mac rxPkOk:sum(packetBytes) 1227972
attr interpolationmode none
attr source rxPkOk
attr title "packets received OK, sum(packetBytes)"
scalar WiredNetworkExample.switch.eth[9].mac backoffSlotsGenerated:count 0
attr interpolationmode none
attr title "backoff, count"
scalar WiredNetworkExample.switch.eth[9].mac collision:count 0
attr interpolationmode none
attr title "collision, count"
scalar WiredNetworkExample.switch.eth[9].mac txPk:count 3745
attr interpolationmode none
attr source packetSentToLower
attr title "packets transmitted, count"
scalar WiredNetworkExample.switch.eth[9].mac txPk:sum(packetBytes) 1228484
attr interpolationmode none
attr source packetSentToLower
attr title "packets transmitted, sum(packetBytes)"
scalar WiredNetworkExample.switch.eth[9].mac packetReceivedFromUpper:count 3745
attr interpolationmode none
attr source packetReceivedFromUpper
attr title "packet bytes from higher layer, count"
scalar WiredNetworkExample.switch.eth[9].mac packetReceivedFromUpper:sum(packetBytes) 1228484
attr interpolationmode none
attr source packetReceivedFromUpper
attr title "packet bytes from higher layer, sum(packetBytes)"
scalar WiredNetworkExample.switch.eth[9].mac passedUpPk:count 3737
attr interpolationmode none
attr source packetSentToUpper
attr title "packets passed to higher layer, count"
scalar WiredNetworkExample.switch.eth[9].mac passedUpPk:sum(packetBytes) 1227972
attr interpolationmode none
attr source packetSentToUpper
attr title "packets passed to higher layer, sum(packetBytes)"
scalar WiredNetworkExample.switch.eth[9].mac packetDropIncorrectlyReceived:count 0
attr interpolationmode none
attr source packetDropReasonIsIncorrectlyReceived(packetDropped)
attr title "packet drop: incorrectly received, count"
scalar WiredNetworkExample.switch.eth[9].mac packetDropIncorrectlyReceived:sum(packetBytes) 0
attr interpolationmode none
attr source packetDropReasonIsIncorrectlyReceived(packetDropped)
attr title "packet drop: incorrectly received, sum(packetBytes)"
scalar WiredNetworkExample.switch.eth[9].mac packetDropInterfaceDown:count 0
attr interpolationmode none
attr source packetDropReasonIsInterfaceDown(packetDropped)
attr title "packet drop: interface down, count"
scalar WiredNetworkExample.switch.eth[9].mac packetDropInterfaceDown:sum(packetBytes) 0
attr interpolationmode none
attr source packetDropReasonIsInterfaceDown(packetDropped)
attr title "packet drop: interface down, sum(packetBytes)"
scalar WiredNetworkExample.switch.eth[9].mac packetDropNotAddressedToUs:count 0
attr interpolationmode none
attr source packetDropReasonIsNotAddressedToUs(packetDropped)
attr title "packet drop: not addressed to us, count"
scalar WiredNetworkExample.switch.eth[9].mac packetDropNotAddressedToUs:sum(packetBytes) 0
attr interpolationmode none
attr source packetDropReasonIsNotAddressedToUs(packetDropped)
attr title "packet drop: not addressed to us, sum(packetBytes)"
scalar WiredNetworkExample.switch.eth[10].mac "simulated time" 242.000016024
scalar WiredNetworkExample.switch.eth[10].mac full-duplex 1
scalar WiredNetworkExample.switch.eth[10].mac "frames/sec sent" 15.475205586881
scalar WiredNetworkExample.switch.eth[10].mac "frames/sec rcvd" 15.442147737831
scalar WiredNetworkExample.switch.eth[10].mac "bits/sec sent" 40611.038633259
scalar WiredNetworkExample.switch.eth[10].mac "bits/sec rcvd" 40594.113014545
scalar WiredNetworkExample.switch.eth[10].mac "rx channel idle (%)" 99.995841758953
scalar WiredNetworkExample.switch.eth[10].mac "rx channel utilization (%)" 0.0041582410469766
scalar WiredNetworkExample.switch.eth[10].mac "rx channel collision (%)" 0
scalar WiredNetworkExample.switch.eth[10].mac collisions 0
scalar WiredNetworkExample.switch.eth[10].mac backoffs 0
scalar WiredNetworkExample.switch.eth[10].mac rxPausePkUnits:count 0
attr interpolationmode none
attr title "pause units received, count"
scalar WiredNetworkExample.switch.eth[10].mac rxPausePkUnits:sum 0
attr interpolationmode none
attr title "pause units received, sum"
scalar WiredNetworkExample.switch.eth[10].mac txPausePkUnits:count 0
attr interpolationmode none
attr title "pause units sent, count"
scalar WiredNetworkExample.switch.eth[10].mac txPausePkUnits:sum 0
attr interpolationmode none
attr title "pause units sent, sum"
scalar WiredNetworkExample.switch.eth[10].mac rxPkOk:count 3737
attr interpolationmode none
attr source rxPkOk
attr title "packets received OK, count"
scalar WiredNetworkExample.switch.eth[10].mac rxPkOk:sum(packetBytes) 1227972
attr interpolationmode none
attr source rxPkOk
attr title "packets received OK, sum(packetBytes)"
scalar WiredNetworkExample.switch.eth[10].mac backoffSlotsGenerated:count 0
attr interpolationmode none
attr title "backoff, count"
scalar WiredNetworkExample.switch.eth[10].mac collision:count 0
attr interpolationmode none
attr title "collision, count"
scalar WiredNetworkExample.switch.eth[10].mac txPk:count 3745
attr interpolationmode none
attr source packetSentToLower
attr title "packets transmitted, count"
scalar WiredNetworkExample.switch.eth[10].mac txPk:sum(packetBytes) 1228484
attr interpolationmode none
attr source packetSentToLower
attr title "packets transmitted, sum(packetBytes)"
scalar WiredNetworkExample.switch.eth[10].mac packetReceivedFromUpper:count 3745
attr interpolationmode none
attr source packetReceivedFromUpper
attr title "packet bytes from higher layer, count"
scalar WiredNetworkExample.switch.eth[10].mac packetReceivedFromUpper:sum(packetBytes) 1228484
attr interpolationmode none
attr source packetReceivedFromUpper
attr title "packet bytes from higher layer, sum(packetBytes)"
scalar WiredNetworkExample.switch.eth[10].mac passedUpPk:count 3737
attr interpolationmode none
attr source packetSentToUpper
attr title "packets passed to higher layer, count"
scalar WiredNetworkExample.switch.eth[10].mac passedUpPk:sum(packetBytes) 1227972
attr interpolationmode none
attr source packetSentToUpper
attr title "packets passed to higher layer, sum(packetBytes)"
scalar WiredNetworkExample.switch.eth[10].mac packetDropIncorrectlyReceived:count 0
attr interpolationmode none
attr source packetDropReasonIsIncorrectlyReceived(packetDropped)
attr title "packet drop: incorrectly received, count"
scalar WiredNetworkExample.switch.eth[10].mac packetDropIncorrectlyReceived:sum(packetBytes) 0
attr interpolationmode none
attr source packetDropReasonIsIncorrectlyReceived(packetDropped)
attr title "packet drop: incorrectly received, sum(packetBytes)"
scalar WiredNetworkExample.switch.eth[10].mac packetDropInterfaceDown:count 0
attr interpolationmode none
attr source packetDropReasonIsInterfaceDown(packetDropped)
attr title "packet drop: interface down, count"
scalar WiredNetworkExample.switch.eth[10].mac packetDropInterfaceDown:sum(packetBytes) 0
attr interpolationmode none
attr source packetDropReasonIsInterfaceDown(packetDropped)
attr title "packet drop: interface down, sum(packetBytes)"
scalar WiredNetworkExample.switch.eth[10].mac packetDropNotAddressedToUs:count 0
attr interpolationmode none
attr source packetDropReasonIsNotAddressedToUs(packetDropped)
attr title "packet drop: not addressed to us, count"
scalar WiredNetworkExample.switch.eth[10].mac packetDropNotAddressedToUs:sum(packetBytes) 0
attr interpolationmode none
attr source packetDropReasonIsNotAddressedToUs(packetDropped)
attr title "packet drop: not addressed to us, sum(packetBytes)"
scalar WiredNetworkExample.client[0].lo[0].lo rcvdPkFromHl:count 0
attr interpolationmode none
attr source packetReceivedFromUpper
attr title "packets received from higher layer, count"
scalar WiredNetworkExample.client[0].lo[0].lo rcvdPkFromHl:sum(packetBytes) 0
attr interpolationmode none
attr source packetReceivedFromUpper
attr title "packets received from higher layer, sum(packetBytes)"
scalar WiredNetworkExample.client[0].lo[0].lo passedUpPk:count 0
attr interpolationmode none
attr source packetSentToUpper
attr title "packets passed to higher layer, count"
scalar WiredNetworkExample.client[0].lo[0].lo passedUpPk:sum(packetBytes) 0
attr interpolationmode none
attr source packetSentToUpper
attr title "packets passed to higher layer, sum(packetBytes)"
scalar WiredNetworkExample.client[0].eth[0].mac "simulated time" 242.000016024
scalar WiredNetworkExample.client[0].eth[0].mac full-duplex 1
scalar WiredNetworkExample.client[0].eth[0].mac "frames/sec sent" 15.442147737831
scalar WiredNetworkExample.client[0].eth[0].mac "frames/sec rcvd" 15.475205586881
scalar WiredNetworkExample.client[0].eth[0].mac "bits/sec sent" 40594.113014545
scalar WiredNetworkExample.client[0].eth[0].mac "bits/sec rcvd" 40611.038633259
scalar WiredNetworkExample.client[0].eth[0].mac "rx channel idle (%)" 100
scalar WiredNetworkExample.client[0].eth[0].mac "rx channel utilization (%)" 0
scalar WiredNetworkExample.client[0].eth[0].mac rxPausePkUnits:count 0
attr interpolationmode none
attr title "pause units received, count"
scalar WiredNetworkExample.client[0].eth[0].mac rxPausePkUnits:sum 0
attr interpolationmode none
attr title "pause units received, sum"
scalar WiredNetworkExample.client[0].eth[0].mac txPausePkUnits:count 0
attr interpolationmode none
attr title "pause units sent, count"
scalar WiredNetworkExample.client[0].eth[0].mac txPausePkUnits:sum 0
attr interpolationmode none
attr title "pause units sent, sum"
scalar WiredNetworkExample.client[0].eth[0].mac rxPkOk:count 3745
attr interpolationmode none
attr source rxPkOk
attr title "packets received OK, count"
scalar WiredNetworkExample.client[0].eth[0].mac rxPkOk:sum(packetBytes) 1228484
attr interpolationmode none
attr source rxPkOk
attr title "packets received OK, sum(packetBytes)"
scalar WiredNetworkExample.client[0].eth[0].mac txPk:count 3737
attr interpolationmode none
attr source packetSentToLower
attr title "packets transmitted, count"
scalar WiredNetworkExample.client[0].eth[0].mac txPk:sum(packetBytes) 1227972
attr interpolationmode none
attr source packetSentToLower
attr title "packets transmitted, sum(packetBytes)"
scalar WiredNetworkExample.client[0].eth[0].mac packetReceivedFromUpper:count 3737
attr interpolationmode none
attr source packetReceivedFromUpper
attr title "packet bytes from higher layer, count"
scalar WiredNetworkExample.client[0].eth[0].mac packetReceivedFromUpper:sum(packetBytes) 1227972
attr interpolationmode none
attr source packetReceivedFromUpper
attr title "packet bytes from higher layer, sum(packetBytes)"
scalar WiredNetworkExample.client[0].eth[0].mac passedUpPk:count 3745
[...]
attr title "pause sent, sum"
scalar WiredNetworkExample.client[8].eth[0].encap decapPk:count 3745
attr interpolationmode none
attr source decapPk
attr title "packets decapsulated, count"
scalar WiredNetworkExample.client[8].eth[0].encap decapPk:sum(packetBytes) 1161074
attr interpolationmode none
attr source decapPk
attr title "packets decapsulated, sum(packetBytes)"
scalar WiredNetworkExample.client[8].eth[0].encap encapPk:count 3737
attr interpolationmode none
attr source encapPk
attr title "packets encapsulated, count"
scalar WiredNetworkExample.client[8].eth[0].encap encapPk:sum(packetBytes) 1149472
attr interpolationmode none
attr source encapPk
attr title "packets encapsulated, sum(packetBytes)"
scalar WiredNetworkExample.client[8].ipv4.ip packetDropAddressResolutionFailed:count 0
attr interpolationmode none
attr source packetDropReasonIsAddressResolutionFailed(packetDropped)
attr title "packet drop: address resolution failed, count"
scalar WiredNetworkExample.client[8].ipv4.ip packetDropAddressResolutionFailed:sum(packetBytes) 0
attr interpolationmode none
attr source packetDropReasonIsAddressResolutionFailed(packetDropped)
attr title "packet drop: address resolution failed, sum(packetBytes)"
scalar WiredNetworkExample.client[8].ipv4.ip packetDropHopLimitReached:count 0
attr interpolationmode none
attr source packetDropReasonIsHopLimitReached(packetDropped)
attr title "packet drop: hop limit reached, count"
scalar WiredNetworkExample.client[8].ipv4.ip packetDropHopLimitReached:sum(packetBytes) 0
attr interpolationmode none
attr source packetDropReasonIsHopLimitReached(packetDropped)
attr title "packet drop: hop limit reached, sum(packetBytes)"
scalar WiredNetworkExample.client[8].ipv4.ip packetDropForwardingDisabled:count 0
attr interpolationmode none
attr source packetDropReasonIsForwardingDisabled(packetDropped)
attr title "packet drop: forwarding disabled, count"
scalar WiredNetworkExample.client[8].ipv4.ip packetDropForwardingDisabled:sum(packetBytes) 0
attr interpolationmode none
attr source packetDropReasonIsForwardingDisabled(packetDropped)
attr title "packet drop: forwarding disabled, sum(packetBytes)"
scalar WiredNetworkExample.client[8].ipv4.ip packetDropNoInterfaceFound:count 0
attr interpolationmode none
attr source packetDropReasonIsNoInterfaceFound(packetDropped)
attr title "packet drop: no interface found, count"
scalar WiredNetworkExample.client[8].ipv4.ip packetDropNoInterfaceFound:sum(packetBytes) 0
attr interpolationmode none
attr source packetDropReasonIsNoInterfaceFound(packetDropped)
attr title "packet drop: no interface found, sum(packetBytes)"
scalar WiredNetworkExample.client[8].ipv4.ip packetDropNoRouteFound:count 0
attr interpolationmode none
attr source packetDropReasonIsNoRouteFound(packetDropped)
attr title "packet drop: no route found, count"
scalar WiredNetworkExample.client[8].ipv4.ip packetDropNoRouteFound:sum(packetBytes) 0
attr interpolationmode none
attr source packetDropReasonIsNoRouteFound(packetDropped)
attr title "packet drop: no route found, sum(packetBytes)"
scalar WiredNetworkExample.client[8].ipv4.ip packetDropUndefined:count 0
attr interpolationmode none
attr source packetDropReasonIsUndefined(packetDropped)
attr title "packet drop: undefined, count"
scalar WiredNetworkExample.client[8].ipv4.ip packetDropUndefined:sum(packetBytes) 0
attr interpolationmode none
attr source packetDropReasonIsUndefined(packetDropped)
attr title "packet drop: undefined, sum(packetBytes)"
scalar WiredNetworkExample.client[8].ipv4.arp arpResolutionFailed:count 0
attr title "ARP failed resolutions, count"
scalar WiredNetworkExample.client[8].ipv4.arp arpResolutionCompleted:count 1
attr title "ARP completed resolutions, count"
scalar WiredNetworkExample.client[8].ipv4.arp arpResolutionInitiated:count 1
attr title "ARP initiated resolutions, count"
scalar WiredNetworkExample.client[8].ipv4.arp arpReplySent:count 0
attr source arpReplySent
attr title "ARP replies sent, count"
scalar WiredNetworkExample.client[8].ipv4.arp arpReplySent:sum(packetBytes) 0
attr source arpReplySent
attr title "ARP replies sent, sum(packetBytes)"
scalar WiredNetworkExample.client[8].ipv4.arp arpRequestSent:count 1
attr source arpRequestSent
attr title "ARP request sent, count"
scalar WiredNetworkExample.client[8].ipv4.arp arpRequestSent:sum(packetBytes) 28
attr source arpRequestSent
attr title "ARP request sent, sum(packetBytes)"
scalar WiredNetworkExample.client[8].udp packetReceived:count 0
attr interpolationmode none
attr source packetReceived
attr title "packets received, count"
scalar WiredNetworkExample.client[8].udp packetReceived:sum(packetBytes) 0
attr interpolationmode none
attr source packetReceived
attr title "packets received, sum(packetBytes)"
scalar WiredNetworkExample.client[8].udp packetSent:count 0
attr interpolationmode none
attr source packetSent
attr title "packets sent, count"
scalar WiredNetworkExample.client[8].udp packetSent:sum(packetBytes) 0
attr interpolationmode none
attr source packetSent
attr title "packets sent, sum(packetBytes)"
scalar WiredNetworkExample.client[8].udp passedUpPk:count 0
attr interpolationmode none
attr source packetSentToUpper
attr title "packets passed up, count"
scalar WiredNetworkExample.client[8].udp droppedPkWrongPort:count 0
attr interpolationmode none
attr source packetDropReasonIsNoPortFound(packetDropped)
attr title "packets dropped (wrong port), count"
scalar WiredNetworkExample.client[8].udp droppedPkBadChecksum:count 0
attr interpolationmode none
attr source packetDropReasonIsIncorrectlyReceived(packetDropped)
attr title "packets dropped (checksum error), count"
scalar WiredNetworkExample.client[8].app[0] bytesRcvd 1000000
scalar WiredNetworkExample.client[8].app[0] bytesSent 1000000
scalar WiredNetworkExample.client[8].app[0] packetReceived:count 1866
attr interpolationmode none
attr source packetReceived
attr title "packets received, count"
scalar WiredNetworkExample.client[8].app[0] packetReceived:sum(packetBytes) 1000000
attr interpolationmode none
attr source packetReceived
attr title "packets received, sum(packetBytes)"
statistic WiredNetworkExample.client[8].app[0] endToEndDelay:histogram
field count 1866
field mean 0.052462590825295
field stddev 0.030088603046722
field min 7.3e-05
field max 0.104250808
field sum 97.89519448
field sqrsum 6.8242648538773
attr interpolationmode none
attr source dataAge(packetReceived)
attr title "end-to-end delay, histogram"
attr unit s
bin	-inf	0
bin	0	29
bin	0.002	42
bin	0.004	28
bin	0.006	42
bin	0.008	28
bin	0.01	42
bin	0.012	28
bin	0.014	42
bin	0.016	33
bin	0.018	37
bin	0.02	42
bin	0.022	28
bin	0.024	42
bin	0.026	28
bin	0.028	42
bin	0.03	28
bin	0.032	42
bin	0.034	37
bin	0.036	33
bin	0.038	42
bin	0.04	28
bin	0.042	42
bin	0.044	28
bin	0.046	42
bin	0.048	28
bin	0.05	42
bin	0.052	40
bin	0.054	30
bin	0.056	42
bin	0.058	28
bin	0.06	42
bin	0.062	28
bin	0.064	42
bin	0.066	28
bin	0.068	42
bin	0.07	42
bin	0.072	28
bin	0.074	42
bin	0.076	28
bin	0.078	42
bin	0.08	28
bin	0.082	42
bin	0.084	30
bin	0.086	40
bin	0.088	42
bin	0.09	28
bin	0.092	42
bin	0.094	28
bin	0.096	42
bin	0.098	28
bin	0.1	42
bin	0.102	34
bin	0.104	11
bin	0.106	0
scalar WiredNetworkExample.client[8].app[0] packetSent:count 1
attr interpolationmode none
attr source packetSent
attr title "packets sent, count"
scalar WiredNetworkExample.client[8].app[0] packetSent:sum(packetBytes) 1000000
attr interpolationmode none
attr source packetSent
attr title "packets sent, sum(packetBytes)"
scalar WiredNetworkExample.client[9].lo[0].lo rcvdPkFromHl:count 0
attr interpolationmode none
attr source packetReceivedFromUpper
attr title "packets received from higher layer, count"
scalar WiredNetworkExample.client[9].lo[0].lo rcvdPkFromHl:sum(packetBytes) 0
attr interpolationmode none
attr source packetReceivedFromUpper
attr title "packets received from higher layer, sum(packetBytes)"
scalar WiredNetworkExample.client[9].lo[0].lo passedUpPk:count 0
attr interpolationmode none
attr source packetSentToUpper
attr title "packets passed to higher layer, count"
scalar WiredNetworkExample.client[9].lo[0].lo passedUpPk:sum(packetBytes) 0
attr interpolationmode none
attr source packetSentToUpper
attr title "packets passed to higher layer, sum(packetBytes)"
scalar WiredNetworkExample.client[9].eth[0].mac "simulated time" 242.000016024
scalar WiredNetworkExample.client[9].eth[0].mac full-duplex 1
scalar WiredNetworkExample.client[9].eth[0].mac "frames/sec sent" 15.442147737831
scalar WiredNetworkExample.client[9].eth[0].mac "frames/sec rcvd" 15.475205586881
scalar WiredNetworkExample.client[9].eth[0].mac "bits/sec sent" 40594.113014545
scalar WiredNetworkExample.client[9].eth[0].mac "bits/sec rcvd" 40611.038633259
scalar WiredNetworkExample.client[9].eth[0].mac "rx channel idle (%)" 100
scalar WiredNetworkExample.client[9].eth[0].mac "rx channel utilization (%)" 0
scalar WiredNetworkExample.client[9].eth[0].mac rxPausePkUnits:count 0
attr interpolationmode none
attr title "pause units received, count"
scalar WiredNetworkExample.client[9].eth[0].mac rxPausePkUnits:sum 0
attr interpolationmode none
attr title "pause units received, sum"
scalar WiredNetworkExample.client[9].eth[0].mac txPausePkUnits:count 0
attr interpolationmode none
attr title "pause units sent, count"
scalar WiredNetworkExample.client[9].eth[0].mac txPausePkUnits:sum 0
attr interpolationmode none
attr title "pause units sent, sum"
scalar WiredNetworkExample.client[9].eth[0].mac rxPkOk:count 3745
attr interpolationmode none
attr source rxPkOk
attr title "packets received OK, count"
scalar WiredNetworkExample.client[9].eth[0].mac rxPkOk:sum(packetBytes) 1228484
attr interpolationmode none
attr source rxPkOk
attr title "packets received OK, sum(packetBytes)"
scalar WiredNetworkExample.client[9].eth[0].mac txPk:count 3737
attr interpolationmode none
attr source packetSentToLower
attr title "packets transmitted, count"
scalar WiredNetworkExample.client[9].eth[0].mac txPk:sum(packetBytes) 1227972
attr interpolationmode none
attr source packetSentToLower
attr title "packets transmitted, sum(packetBytes)"
scalar WiredNetworkExample.client[9].eth[0].mac packetReceivedFromUpper:count 3737
attr interpolationmode none
attr source packetReceivedFromUpper
attr title "packet bytes from higher layer, count"
scalar WiredNetworkExample.client[9].eth[0].mac packetReceivedFromUpper:sum(packetBytes) 1227972
attr interpolationmode none
attr source packetReceivedFromUpper
attr title "packet bytes from higher layer, sum(packetBytes)"
scalar WiredNetworkExample.client[9].eth[0].mac passedUpPk:count 3745
attr interpolationmode none
attr source packetSentToUpper
attr title "packets passed to higher layer, count"
scalar WiredNetworkExample.client[9].eth[0].mac passedUpPk:sum(packetBytes) 1228484
attr interpolationmode none
attr source packetSentToUpper
attr title "packets passed to higher layer, sum(packetBytes)"
scalar WiredNetworkExample.client[9].eth[0].mac packetDropIncorrectlyReceived:count 0
attr interpolationmode none
attr source packetDropReasonIsIncorrectlyReceived(packetDropped)
attr title "packet drop: incorrectly received, count"
scalar WiredNetworkExample.client[9].eth[0].mac packetDropIncorrectlyReceived:sum(packetBytes) 0
attr interpolationmode none
attr source packetDropReasonIsIncorrectlyReceived(packetDropped)
attr title "packet drop: incorrectly received, sum(packetBytes)"
scalar WiredNetworkExample.client[9].eth[0].mac packetDropInterfaceDown:count 0
attr interpolationmode none
attr source packetDropReasonIsInterfaceDown(packetDropped)
attr title "packet drop: interface down, count"
scalar WiredNetworkExample.client[9].eth[0].mac packetDropInterfaceDown:sum(packetBytes) 0
attr interpolationmode none
attr source packetDropReasonIsInterfaceDown(packetDropped)
attr title "packet drop: interface down, sum(packetBytes)"
scalar WiredNetworkExample.client[9].eth[0].mac packetDropNotAddressedToUs:count 0
attr interpolationmode none
attr source packetDropReasonIsNotAddressedToUs(packetDropped)
attr title "packet drop: not addressed to us, count"
scalar WiredNetworkExample.client[9].eth[0].mac packetDropNotAddressedToUs:sum(packetBytes) 0
attr interpolationmode none
attr source packetDropReasonIsNotAddressedToUs(packetDropped)
attr title "packet drop: not addressed to us, sum(packetBytes)"
scalar WiredNetworkExample.client[9].eth[0].encap pauseSent:count 0
attr title "pause sent, count"
scalar WiredNetworkExample.client[9].eth[0].encap pauseSent:sum 0
attr title "pause sent, sum"
scalar WiredNetworkExample.client[9].eth[0].encap decapPk:count 3745
attr interpolationmode none
attr source decapPk
attr title "packets decapsulated, count"
scalar WiredNetworkExample.client[9].eth[0].encap decapPk:sum(packetBytes) 1161074
attr interpolationmode none
attr source decapPk
attr title "packets decapsulated, sum(packetBytes)"
scalar WiredNetworkExample.client[9].eth[0].encap encapPk:count 3737
attr interpolationmode none
attr source encapPk
attr title "packets encapsulated, count"
scalar WiredNetworkExample.client[9].eth[0].encap encapPk:sum(packetBytes) 1149472
attr interpolationmode none
attr source encapPk
attr title "packets encapsulated, sum(packetBytes)"
scalar WiredNetworkExample.client[9].ipv4.ip packetDropAddressResolutionFailed:count 0
attr interpolationmode none
attr source packetDropReasonIsAddressResolutionFailed(packetDropped)
attr title "packet drop: address resolution failed, count"
scalar WiredNetworkExample.client[9].ipv4.ip packetDropAddressResolutionFailed:sum(packetBytes) 0
attr interpolationmode none
attr source packetDropReasonIsAddressResolutionFailed(packetDropped)
attr title "packet drop: address resolution failed, sum(packetBytes)"
scalar WiredNetworkExample.client[9].ipv4.ip packetDropHopLimitReached:count 0
attr interpolationmode none
attr source packetDropReasonIsHopLimitReached(packetDropped)
attr title "packet drop: hop limit reached, count"
scalar WiredNetworkExample.client[9].ipv4.ip packetDropHopLimitReached:sum(packetBytes) 0
attr interpolationmode none
attr source packetDropReasonIsHopLimitReached(packetDropped)
attr title "packet drop: hop limit reached, sum(packetBytes)"
scalar WiredNetworkExample.client[9].ipv4.ip packetDropForwardingDisabled:count 0
attr interpolationmode none
attr source packetDropReasonIsForwardingDisabled(packetDropped)
attr title "packet drop: forwarding disabled, count"
scalar WiredNetworkExample.client[9].ipv4.ip packetDropForwardingDisabled:sum(packetBytes) 0
attr interpolationmode none
attr source packetDropReasonIsForwardingDisabled(packetDropped)
attr title "packet drop: forwarding disabled, sum(packetBytes)"
scalar WiredNetworkExample.client[9].ipv4.ip packetDropNoInterfaceFound:count 0
attr interpolationmode none
attr source packetDropReasonIsNoInterfaceFound(packetDropped)
attr title "packet drop: no interface found, count"
scalar WiredNetworkExample.client[9].ipv4.ip packetDropNoInterfaceFound:sum(packetBytes) 0
attr interpolationmode none
attr source packetDropReasonIsNoInterfaceFound(packetDropped)
attr title "packet drop: no interface found, sum(packetBytes)"
scalar WiredNetworkExample.client[9].ipv4.ip packetDropNoRouteFound:count 0
attr interpolationmode none
attr source packetDropReasonIsNoRouteFound(packetDropped)
attr title "packet drop: no route found, count"
scalar WiredNetworkExample.client[9].ipv4.ip packetDropNoRouteFound:sum(packetBytes) 0
attr interpolationmode none
attr source packetDropReasonIsNoRouteFound(packetDropped)
attr title "packet drop: no route found, sum(packetBytes)"
scalar WiredNetworkExample.client[9].ipv4.ip packetDropUndefined:count 0
attr interpolationmode none
attr source packetDropReasonIsUndefined(packetDropped)
attr title "packet drop: undefined, count"
scalar WiredNetworkExample.client[9].ipv4.ip packetDropUndefined:sum(packetBytes) 0
attr interpolationmode none
attr source packetDropReasonIsUndefined(packetDropped)
attr title "packet drop: undefined, sum(packetBytes)"
scalar WiredNetworkExample.client[9].ipv4.arp arpResolutionFailed:count 0
attr title "ARP failed resolutions, count"
scalar WiredNetworkExample.client[9].ipv4.arp arpResolutionCompleted:count 1
attr title "ARP completed resolutions, count"
scalar WiredNetworkExample.client[9].ipv4.arp arpResolutionInitiated:count 1
attr title "ARP initiated resolutions, count"
scalar WiredNetworkExample.client[9].ipv4.arp arpReplySent:count 0
attr source arpReplySent
attr title "ARP replies sent, count"
scalar WiredNetworkExample.client[9].ipv4.arp arpReplySent:sum(packetBytes) 0
attr source arpReplySent
attr title "ARP replies sent, sum(packetBytes)"
scalar WiredNetworkExample.client[9].ipv4.arp arpRequestSent:count 1
attr source arpRequestSent
attr title "ARP request sent, count"
scalar WiredNetworkExample.client[9].ipv4.arp arpRequestSent:sum(packetBytes) 28
attr source arpRequestSent
attr title "ARP request sent, sum(packetBytes)"
scalar WiredNetworkExample.client[9].udp packetReceived:count 0
attr interpolationmode none
attr source packetReceived
attr title "packets received, count"
scalar WiredNetworkExample.client[9].udp packetReceived:sum(packetBytes) 0
attr interpolationmode none
attr source packetReceived
attr title "packets received, sum(packetBytes)"
scalar WiredNetworkExample.client[9].udp packetSent:count 0
attr interpolationmode none
attr source packetSent
attr title "packets sent, count"
scalar WiredNetworkExample.client[9].udp packetSent:sum(packetBytes) 0
attr interpolationmode none
attr source packetSent
attr title "packets sent, sum(packetBytes)"
scalar WiredNetworkExample.client[9].udp passedUpPk:count 0
attr interpolationmode none
attr source packetSentToUpper
attr title "packets passed up, count"
scalar WiredNetworkExample.client[9].udp droppedPkWrongPort:count 0
attr interpolationmode none
attr source packetDropReasonIsNoPortFound(packetDropped)
attr title "packets dropped (wrong port), count"
scalar WiredNetworkExample.client[9].udp droppedPkBadChecksum:count 0
attr interpolationmode none
attr source packetDropReasonIsIncorrectlyReceived(packetDropped)
attr title "packets dropped (checksum error), count"
scalar WiredNetworkExample.client[9].app[0] bytesRcvd 1000000
scalar WiredNetworkExample.client[9].app[0] bytesSent 1000000
scalar WiredNetworkExample.client[9].app[0] packetReceived:count 1866
attr interpolationmode none
attr source packetReceived
attr title "packets received, count"
scalar WiredNetworkExample.client[9].app[0] packetReceived:sum(packetBytes) 1000000
attr interpolationmode none
attr source packetReceived
attr title "packets received, sum(packetBytes)"
statistic WiredNetworkExample.client[9].app[0] endToEndDelay:histogram
field count 1866
field mean 0.05253799350911
field stddev 0.030089043335291
field min 7.7912e-05
field max 0.104263464
field sum 98.035895888
field sqrsum 6.8390879980971
attr interpolationmode none
attr source dataAge(packetReceived)
attr title "end-to-end delay, histogram"
attr unit s
bin	-inf	0
bin	0	29
bin	0.002	32
bin	0.004	38
bin	0.006	42
bin	0.008	28
bin	0.01	42
bin	0.012	28
bin	0.014	42
bin	0.016	28
bin	0.018	42
bin	0.02	36
bin	0.022	34
bin	0.024	42
bin	0.026	28
bin	0.028	42
bin	0.03	28
bin	0.032	42
bin	0.034	28
bin	0.036	42
bin	0.038	40
bin	0.04	30
bin	0.042	42
bin	0.044	28
bin	0.046	42
bin	0.048	28
bin	0.05	42
bin	0.052	28
bin	0.054	42
bin	0.056	42
bin	0.058	28
bin	0.06	42
bin	0.062	28
bin	0.064	42
bin	0.066	28
bin	0.068	42
bin	0.07	29
bin	0.072	41
bin	0.074	42
bin	0.076	28
bin	0.078	42
bin	0.08	28
bin	0.082	42
bin	0.084	28
bin	0.086	42
bin	0.088	33
bin	0.09	37
bin	0.092	42
bin	0.094	28
bin	0.096	42
bin	0.098	28
bin	0.1	42
bin	0.102	28
bin	0.104	17
bin	0.106	0
scalar WiredNetworkExample.client[9].app[0] packetSent:count 1
attr interpolationmode none
attr source packetSent
attr title "packets sent, count"
scalar WiredNetworkExample.client[9].app[0] packetSent:sum(packetBytes) 1000000
attr interpolationmode none
attr source packetSent
attr title "packets sent, sum(packetBytes)"

